Fragment
  Chem3D Core 21.007272619313D

107109  0  0  0  0  0  0  0  0999 V2000
    3.6562   -6.3445   -2.1668 C   0  0  0  0  0  0  0  0  0  0  0  0
    2.8953   -5.7761   -3.3574 C   0  0  0  0  0  0  0  0  0  0  0  0
    3.8089   -5.6921   -4.5404 C   0  0  0  0  0  0  0  0  0  0  0  0
    3.3529   -5.2191   -5.7048 C   0  0  0  0  0  0  0  0  0  0  0  0
    1.9289   -4.7736   -5.8257 C   0  0  0  0  0  0  0  0  0  0  0  0
    1.6684   -4.2826   -7.2437 C   0  0  0  0  0  0  0  0  0  0  0  0
    0.2197   -3.8293   -7.3667 C   0  0  0  0  0  0  0  0  0  0  0  0
   -0.6908   -4.9779   -7.0620 C   0  0  0  0  0  0  0  0  0  0  0  0
   -0.1561   -6.2225   -6.7295 C   0  0  0  0  0  0  0  0  0  0  0  0
   -1.0045   -7.2927   -6.4457 C   0  0  0  0  0  0  0  0  0  0  0  0
   -2.3875   -7.1182   -6.4943 C   0  0  0  0  0  0  0  0  0  0  0  0
   -2.9222   -5.8736   -6.8267 C   0  0  0  0  0  0  0  0  0  0  0  0
   -2.0738   -4.8034   -7.1106 C   0  0  0  0  0  0  0  0  0  0  0  0
   -0.0432   -2.6987   -6.3808 C   0  0  0  0  0  0  0  0  0  0  0  0
   -0.4783   -1.4525   -7.1406 C   0  0  0  0  0  0  0  0  0  0  0  0
   -1.7076   -1.7410   -7.8933 C   0  0  0  0  0  0  0  0  0  0  0  0
   -2.6759   -1.9682   -8.4863 N   0  0  0  0  0  0  0  0  0  0  0  0
   -0.7417   -0.3230   -6.1534 C   0  0  0  0  0  0  0  0  0  0  0  0
    0.1680    0.8269   -6.4554 C   0  0  0  0  0  0  0  0  0  0  0  0
    0.1126    1.9364   -5.7114 C   0  0  0  0  0  0  0  0  0  0  0  0
   -0.8590    2.0287   -4.5764 C   0  0  0  0  0  0  0  0  0  0  0  0
   -0.7196    3.3846   -3.8969 C   0  0  0  0  0  0  0  0  0  0  0  0
   -1.7081    3.4785   -2.7421 C   0  0  0  0  0  0  0  0  0  0  0  0
   -1.5694    4.8113   -2.0746 C   0  0  0  0  0  0  0  0  0  0  0  0
   -2.6586    5.6809   -2.0205 C   0  0  0  0  0  0  0  0  0  0  0  0
   -2.5293    6.9228   -1.3987 C   0  0  0  0  0  0  0  0  0  0  0  0
   -1.3108    7.2949   -0.8309 C   0  0  0  0  0  0  0  0  0  0  0  0
   -0.2217    6.4253   -0.8850 C   0  0  0  0  0  0  0  0  0  0  0  0
   -0.3509    5.1835   -1.5069 C   0  0  0  0  0  0  0  0  0  0  0  0
   -1.4188    2.3742   -1.7340 C   0  0  0  0  0  0  0  0  0  0  0  0
   -2.4073    2.4681   -0.5792 C   0  0  0  0  0  0  0  0  0  0  0  0
   -3.7766    2.3162   -1.0919 C   0  0  0  0  0  0  0  0  0  0  0  0
   -4.8553    2.1965   -1.4957 N   0  0  0  0  0  0  0  0  0  0  0  0
   -2.1173    1.3627    0.4275 C   0  0  0  0  0  0  0  0  0  0  0  0
   -1.7892    1.9701    1.7558 C   0  0  0  0  0  0  0  0  0  0  0  0
   -1.4986    1.1834    2.7971 C   0  0  0  0  0  0  0  0  0  0  0  0
   -1.5015   -0.3048    2.6347 C   0  0  0  0  0  0  0  0  0  0  0  0
   -1.1407   -0.9616    3.9606 C   0  0  0  0  0  0  0  0  0  0  0  0
   -1.1436   -2.4756    3.7953 C   0  0  0  0  0  0  0  0  0  0  0  0
   -0.7879   -3.1198    5.0990 C   0  0  0  0  0  0  0  0  0  0  0  0
   -1.6863   -3.9916    5.7141 C   0  0  0  0  0  0  0  0  0  0  0  0
   -1.3549   -4.5917    6.9288 C   0  0  0  0  0  0  0  0  0  0  0  0
   -0.1251   -4.3201    7.5284 C   0  0  0  0  0  0  0  0  0  0  0  0
    0.7733   -3.4484    6.9133 C   0  0  0  0  0  0  0  0  0  0  0  0
    0.4418   -2.8481    5.6985 C   0  0  0  0  0  0  0  0  0  0  0  0
   -0.1223   -2.8735    2.7379 C   0  0  0  0  0  0  0  0  0  0  0  0
   -0.1252   -4.3875    2.5727 C   0  0  0  0  0  0  0  0  0  0  0  0
   -1.4620   -4.8329    2.1538 C   0  0  0  0  0  0  0  0  0  0  0  0
   -2.5151   -5.1837    1.8239 N   0  0  0  0  0  0  0  0  0  0  0  0
    0.8959   -4.7839    1.5145 C   0  0  0  0  0  0  0  0  0  0  0  0
    2.9770   -6.4070   -1.2873 H   0  0  0  0  0  0  0  0  0  0  0  0
    4.0312   -7.3618   -2.4183 H   0  0  0  0  0  0  0  0  0  0  0  0
    4.5160   -5.6804   -1.9249 H   0  0  0  0  0  0  0  0  0  0  0  0
    2.5203   -4.7588   -3.1060 H   0  0  0  0  0  0  0  0  0  0  0  0
    2.0355   -6.4402   -3.5993 H   0  0  0  0  0  0  0  0  0  0  0  0
    4.8553   -6.0194   -4.4515 H   0  0  0  0  0  0  0  0  0  0  0  0
    4.0242   -5.1573   -6.5741 H   0  0  0  0  0  0  0  0  0  0  0  0
    1.2529   -5.6284   -5.5997 H   0  0  0  0  0  0  0  0  0  0  0  0
    1.7366   -3.9469   -5.1058 H   0  0  0  0  0  0  0  0  0  0  0  0
    2.3445   -3.4278   -7.4698 H   0  0  0  0  0  0  0  0  0  0  0  0
    1.8607   -5.1093   -7.9636 H   0  0  0  0  0  0  0  0  0  0  0  0
    0.0300   -3.4706   -8.4031 H   0  0  0  0  0  0  0  0  0  0  0  0
    0.9346   -6.3601   -6.6910 H   0  0  0  0  0  0  0  0  0  0  0  0
   -0.5829   -8.2743   -6.1835 H   0  0  0  0  0  0  0  0  0  0  0  0
   -3.0566   -7.9622   -6.2704 H   0  0  0  0  0  0  0  0  0  0  0  0
   -4.0129   -5.7360   -6.8649 H   0  0  0  0  0  0  0  0  0  0  0  0
   -2.4955   -3.8218   -7.3728 H   0  0  0  0  0  0  0  0  0  0  0  0
   -0.8485   -3.0023   -5.6750 H   0  0  0  0  0  0  0  0  0  0  0  0
    0.8875   -2.4795   -5.8111 H   0  0  0  0  0  0  0  0  0  0  0  0
    0.3265   -1.1490   -7.8469 H   0  0  0  0  0  0  0  0  0  0  0  0
   -1.8003    0.0085   -6.2436 H   0  0  0  0  0  0  0  0  0  0  0  0
   -0.5519   -0.6839   -5.1178 H   0  0  0  0  0  0  0  0  0  0  0  0
    0.8819    0.7590   -7.2895 H   0  0  0  0  0  0  0  0  0  0  0  0
    0.7811    2.7813   -5.9334 H   0  0  0  0  0  0  0  0  0  0  0  0
   -1.8954    1.9142   -4.9656 H   0  0  0  0  0  0  0  0  0  0  0  0
   -0.6470    1.2214   -3.8401 H   0  0  0  0  0  0  0  0  0  0  0  0
    0.3168    3.4991   -3.5076 H   0  0  0  0  0  0  0  0  0  0  0  0
   -0.9316    4.1919   -4.6331 H   0  0  0  0  0  0  0  0  0  0  0  0
   -2.7446    3.3634   -3.1309 H   0  0  0  0  0  0  0  0  0  0  0  0
   -3.6196    5.3873   -2.4682 H   0  0  0  0  0  0  0  0  0  0  0  0
   -3.3883    7.6086   -1.3560 H   0  0  0  0  0  0  0  0  0  0  0  0
   -1.2089    8.2743   -0.3405 H   0  0  0  0  0  0  0  0  0  0  0  0
    0.7393    6.7188   -0.4372 H   0  0  0  0  0  0  0  0  0  0  0  0
    0.5080    4.4977   -1.5496 H   0  0  0  0  0  0  0  0  0  0  0  0
   -1.5219    1.3833   -2.2303 H   0  0  0  0  0  0  0  0  0  0  0  0
   -0.3823    2.4893   -1.3452 H   0  0  0  0  0  0  0  0  0  0  0  0
   -2.3049    3.4592   -0.0832 H   0  0  0  0  0  0  0  0  0  0  0  0
   -3.0132    0.7103    0.5296 H   0  0  0  0  0  0  0  0  0  0  0  0
   -1.2539    0.7561    0.0736 H   0  0  0  0  0  0  0  0  0  0  0  0
   -1.7871    3.0636    1.8752 H   0  0  0  0  0  0  0  0  0  0  0  0
   -1.2575    1.6297    3.7732 H   0  0  0  0  0  0  0  0  0  0  0  0
   -2.5142   -0.6409    2.3182 H   0  0  0  0  0  0  0  0  0  0  0  0
   -0.7550   -0.5949    1.8619 H   0  0  0  0  0  0  0  0  0  0  0  0
   -0.1280   -0.6254    4.2770 H   0  0  0  0  0  0  0  0  0  0  0  0
   -1.8872   -0.6715    4.7334 H   0  0  0  0  0  0  0  0  0  0  0  0
   -2.1560   -2.8121    3.4782 H   0  0  0  0  0  0  0  0  0  0  0  0
   -2.6560   -4.2059    5.2412 H   0  0  0  0  0  0  0  0  0  0  0  0
   -2.0634   -5.2792    7.4140 H   0  0  0  0  0  0  0  0  0  0  0  0
    0.1362   -4.7934    8.4863 H   0  0  0  0  0  0  0  0  0  0  0  0
    1.7431   -3.2342    7.3861 H   0  0  0  0  0  0  0  0  0  0  0  0
    1.1503   -2.1606    5.2134 H   0  0  0  0  0  0  0  0  0  0  0  0
   -0.3867   -2.3946    1.7687 H   0  0  0  0  0  0  0  0  0  0  0  0
    0.8902   -2.5370    3.0550 H   0  0  0  0  0  0  0  0  0  0  0  0
    0.1386   -4.8669    3.5419 H   0  0  0  0  0  0  0  0  0  0  0  0
    0.8946   -5.8903    1.3929 H   0  0  0  0  0  0  0  0  0  0  0  0
    1.9082   -4.4473    1.8319 H   0  0  0  0  0  0  0  0  0  0  0  0
    0.6312   -4.3041    0.5457 H   0  0  0  0  0  0  0  0  0  0  0  0
  1  2  1  0      
  1 51  1  0      
  1 52  1  0      
  1 53  1  0      
  2  3  1  0      
  2 54  1  0      
  2 55  1  0      
  3  4  2  0      
  3 56  1  0      
  4  5  1  0      
  4 57  1  0      
  5  6  1  0      
  5 58  1  0      
  5 59  1  0      
  6  7  1  0      
  6 60  1  0      
  6 61  1  0      
  7  8  1  0      
  7 14  1  0      
  7 62  1  0      
  8  9  1  0      
  8 13  2  0      
  9 10  2  0      
  9 63  1  0      
 10 11  1  0      
 10 64  1  0      
 11 12  2  0      
 11 65  1  0      
 12 13  1  0      
 12 66  1  0      
 13 67  1  0      
 14 15  1  0      
 14 68  1  0      
 14 69  1  0      
 15 16  1  0      
 15 18  1  0      
 15 70  1  0      
 16 17  3  0      
 18 19  1  0      
 18 71  1  0      
 18 72  1  0      
 19 20  2  0      
 19 73  1  0      
 20 21  1  0      
 20 74  1  0      
 21 22  1  0      
 21 75  1  0      
 21 76  1  0      
 22 23  1  0      
 22 77  1  0      
 22 78  1  0      
 23 24  1  0      
 23 30  1  0      
 23 79  1  0      
 24 25  1  0      
 24 29  2  0      
 25 26  2  0      
 25 80  1  0      
 26 27  1  0      
 26 81  1  0      
 27 28  2  0      
 27 82  1  0      
 28 29  1  0      
 28 83  1  0      
 29 84  1  0      
 30 31  1  0      
 30 85  1  0      
 30 86  1  0      
 31 32  1  0      
 31 34  1  0      
 31 87  1  0      
 32 33  3  0      
 34 35  1  0      
 34 88  1  0      
 34 89  1  0      
 35 36  2  0      
 35 90  1  0      
 36 37  1  0      
 36 91  1  0      
 37 38  1  0      
 37 92  1  0      
 37 93  1  0      
 38 39  1  0      
 38 94  1  0      
 38 95  1  0      
 39 40  1  0      
 39 46  1  0      
 39 96  1  0      
 40 41  1  0      
 40 45  2  0      
 41 42  2  0      
 41 97  1  0      
 42 43  1  0      
 42 98  1  0      
 43 44  2  0      
 43 99  1  0      
 44 45  1  0      
 44100  1  0      
 45101  1  0      
 46 47  1  0      
 46102  1  0      
 46103  1  0      
 47 48  1  0      
 47 50  1  0      
 47104  1  0      
 48 49  3  0      
 50105  1  0      
 50106  1  0      
 50107  1  0      
M  END
$$$$
