Fragment
  Chem3D Core 21.007272619303D

 59 58  0  0  0  0  0  0  0  0999 V2000
   -8.2327   -6.5136   -1.0099 C   0  0  0  0  0  0  0  0  0  0  0  0
   -6.9136   -5.7523   -1.0099 C   0  0  0  0  0  0  0  0  0  0  0  0
   -7.1863   -4.2803   -1.0099 C   0  0  0  0  0  0  0  0  0  0  0  0
   -6.1695   -3.4121   -1.0099 C   0  0  0  0  0  0  0  0  0  0  0  0
   -4.7584   -3.9120   -1.0099 C   0  0  0  0  0  0  0  0  0  0  0  0
   -3.7998   -2.7285   -1.0099 C   0  0  0  0  0  0  0  0  0  0  0  0
   -2.3642   -3.2371   -1.0099 C   0  0  0  0  0  0  0  0  0  0  0  0
   -2.1331   -4.0540   -2.2100 C   0  0  0  0  0  0  0  0  0  0  0  0
   -1.9510   -4.6976   -3.1553 N   0  0  0  0  0  0  0  0  0  0  0  0
   -1.4068   -2.0527   -1.0108 C   0  0  0  0  0  0  0  0  0  0  0  0
   -0.5437   -2.1068    0.2111 C   0  0  0  0  0  0  0  0  0  0  0  0
    0.3775   -1.1609    0.4213 C   0  0  0  0  0  0  0  0  0  0  0  0
    0.5458   -0.0476   -0.5652 C   0  0  0  0  0  0  0  0  0  0  0  0
    1.6519    0.8869   -0.0933 C   0  0  0  0  0  0  0  0  0  0  0  0
    1.8232    2.0196   -1.0970 C   0  0  0  0  0  0  0  0  0  0  0  0
    0.5640    2.7696   -1.2099 C   0  0  0  0  0  0  0  0  0  0  0  0
   -0.4280    3.3605   -1.2989 N   0  0  0  0  0  0  0  0  0  0  0  0
    2.9289    2.9537   -0.6234 C   0  0  0  0  0  0  0  0  0  0  0  0
    4.0185    2.9985   -1.6489 C   0  0  0  0  0  0  0  0  0  0  0  0
    5.0985    3.7596   -1.4440 C   0  0  0  0  0  0  0  0  0  0  0  0
    5.2180    4.5670   -0.1891 C   0  0  0  0  0  0  0  0  0  0  0  0
    6.5314    5.3379   -0.2037 C   0  0  0  0  0  0  0  0  0  0  0  0
    6.6531    6.1593    1.0730 C   0  0  0  0  0  0  0  0  0  0  0  0
    6.6248    5.2629    2.2378 C   0  0  0  0  0  0  0  0  0  0  0  0
    6.6025    4.5568    3.1553 N   0  0  0  0  0  0  0  0  0  0  0  0
    7.9672    6.9288    1.0574 C   0  0  0  0  0  0  0  0  0  0  0  0
   -8.0300   -7.6080   -1.0099 H   0  0  0  0  0  0  0  0  0  0  0  0
   -8.8156   -6.2448   -0.1007 H   0  0  0  0  0  0  0  0  0  0  0  0
   -8.8162   -6.2445   -1.9187 H   0  0  0  0  0  0  0  0  0  0  0  0
   -6.3308   -6.0211   -1.9192 H   0  0  0  0  0  0  0  0  0  0  0  0
   -6.3302   -6.0213   -0.1011 H   0  0  0  0  0  0  0  0  0  0  0  0
   -8.2231   -3.9130   -1.0099 H   0  0  0  0  0  0  0  0  0  0  0  0
   -6.3698   -2.3305   -1.0099 H   0  0  0  0  0  0  0  0  0  0  0  0
   -4.5843   -4.5298   -0.1007 H   0  0  0  0  0  0  0  0  0  0  0  0
   -4.5841   -4.5304   -1.9187 H   0  0  0  0  0  0  0  0  0  0  0  0
   -3.9740   -2.1107   -1.9192 H   0  0  0  0  0  0  0  0  0  0  0  0
   -3.9742   -2.1101   -0.1011 H   0  0  0  0  0  0  0  0  0  0  0  0
   -2.1899   -3.8555   -0.1011 H   0  0  0  0  0  0  0  0  0  0  0  0
   -0.7656   -2.0953   -1.9195 H   0  0  0  0  0  0  0  0  0  0  0  0
   -1.9899   -1.1046   -1.0113 H   0  0  0  0  0  0  0  0  0  0  0  0
   -0.6674   -2.9249    0.9360 H   0  0  0  0  0  0  0  0  0  0  0  0
    1.0117   -1.2007    1.3192 H   0  0  0  0  0  0  0  0  0  0  0  0
    0.8167   -0.4705   -1.5584 H   0  0  0  0  0  0  0  0  0  0  0  0
   -0.4079    0.5198   -0.6502 H   0  0  0  0  0  0  0  0  0  0  0  0
    1.3810    1.3098    0.8999 H   0  0  0  0  0  0  0  0  0  0  0  0
    2.6056    0.3195   -0.0083 H   0  0  0  0  0  0  0  0  0  0  0  0
    2.0935    1.5969   -2.0905 H   0  0  0  0  0  0  0  0  0  0  0  0
    2.5136    3.9762   -0.4792 H   0  0  0  0  0  0  0  0  0  0  0  0
    3.3419    2.5807    0.3405 H   0  0  0  0  0  0  0  0  0  0  0  0
    3.9307    2.4052   -2.5710 H   0  0  0  0  0  0  0  0  0  0  0  0
    5.8991    3.7926   -2.1976 H   0  0  0  0  0  0  0  0  0  0  0  0
    4.3686    5.2835   -0.1272 H   0  0  0  0  0  0  0  0  0  0  0  0
    5.1965    3.8877    0.6923 H   0  0  0  0  0  0  0  0  0  0  0  0
    7.3809    4.6214   -0.2656 H   0  0  0  0  0  0  0  0  0  0  0  0
    6.5530    6.0171   -1.0851 H   0  0  0  0  0  0  0  0  0  0  0  0
    5.8034    6.8755    1.1355 H   0  0  0  0  0  0  0  0  0  0  0  0
    8.0571    7.5295    1.9901 H   0  0  0  0  0  0  0  0  0  0  0  0
    7.9884    7.6080    0.1759 H   0  0  0  0  0  0  0  0  0  0  0  0
    8.8162    6.2118    0.9949 H   0  0  0  0  0  0  0  0  0  0  0  0
  1  2  1  0      
  1 27  1  0      
  1 28  1  0      
  1 29  1  0      
  2  3  1  0      
  2 30  1  0      
  2 31  1  0      
  3  4  2  0      
  3 32  1  0      
  4  5  1  0      
  4 33  1  0      
  5  6  1  0      
  5 34  1  0      
  5 35  1  0      
  6  7  1  0      
  6 36  1  0      
  6 37  1  0      
  7  8  1  0      
  7 10  1  0      
  7 38  1  0      
  8  9  3  0      
 10 11  1  0      
 10 39  1  0      
 10 40  1  0      
 11 12  2  0      
 11 41  1  0      
 12 13  1  0      
 12 42  1  0      
 13 14  1  0      
 13 43  1  0      
 13 44  1  0      
 14 15  1  0      
 14 45  1  0      
 14 46  1  0      
 15 16  1  0      
 15 18  1  0      
 15 47  1  0      
 16 17  3  0      
 18 19  1  0      
 18 48  1  0      
 18 49  1  0      
 19 20  2  0      
 19 50  1  0      
 20 21  1  0      
 20 51  1  0      
 21 22  1  0      
 21 52  1  0      
 21 53  1  0      
 22 23  1  0      
 22 54  1  0      
 22 55  1  0      
 23 24  1  0      
 23 26  1  0      
 23 56  1  0      
 24 25  3  0      
 26 57  1  0      
 26 58  1  0      
 26 59  1  0      
M  END
$$$$
