Fragment
  Chem3D Core 21.007272619313D

 41 41  0  0  0  0  0  0  0  0999 V2000
    3.2350   -2.5015    2.7200 C   0  0  0  0  0  0  0  0  0  0  0  0
    2.4741   -1.9331    1.5294 C   0  0  0  0  0  0  0  0  0  0  0  0
    3.3877   -1.8490    0.3465 C   0  0  0  0  0  0  0  0  0  0  0  0
    2.9318   -1.3761   -0.8180 C   0  0  0  0  0  0  0  0  0  0  0  0
    1.5077   -0.9306   -0.9389 C   0  0  0  0  0  0  0  0  0  0  0  0
    1.2473   -0.4395   -2.3568 C   0  0  0  0  0  0  0  0  0  0  0  0
   -0.2015    0.0137   -2.4798 C   0  0  0  0  0  0  0  0  0  0  0  0
   -1.1120   -1.1349   -2.1751 C   0  0  0  0  0  0  0  0  0  0  0  0
   -0.5773   -2.3795   -1.8426 C   0  0  0  0  0  0  0  0  0  0  0  0
   -1.4257   -3.4497   -1.5588 C   0  0  0  0  0  0  0  0  0  0  0  0
   -2.8087   -3.2752   -1.6074 C   0  0  0  0  0  0  0  0  0  0  0  0
   -3.3434   -2.0306   -1.9398 C   0  0  0  0  0  0  0  0  0  0  0  0
   -2.4950   -0.9604   -2.2237 C   0  0  0  0  0  0  0  0  0  0  0  0
   -0.4644    1.1444   -1.4939 C   0  0  0  0  0  0  0  0  0  0  0  0
   -0.8995    2.3905   -2.2537 C   0  0  0  0  0  0  0  0  0  0  0  0
   -2.1287    2.1020   -3.0065 C   0  0  0  0  0  0  0  0  0  0  0  0
   -3.0971    1.8748   -3.5995 N   0  0  0  0  0  0  0  0  0  0  0  0
   -1.1629    3.5200   -1.2666 C   0  0  0  0  0  0  0  0  0  0  0  0
    2.5558   -2.5640    3.5995 H   0  0  0  0  0  0  0  0  0  0  0  0
    3.6101   -3.5188    2.4685 H   0  0  0  0  0  0  0  0  0  0  0  0
    4.0948   -1.8374    2.9619 H   0  0  0  0  0  0  0  0  0  0  0  0
    2.0991   -0.9158    1.7809 H   0  0  0  0  0  0  0  0  0  0  0  0
    1.6143   -2.5971    1.2875 H   0  0  0  0  0  0  0  0  0  0  0  0
    4.4341   -2.1764    0.4353 H   0  0  0  0  0  0  0  0  0  0  0  0
    3.6030   -1.3143   -1.6872 H   0  0  0  0  0  0  0  0  0  0  0  0
    0.8317   -1.7853   -0.7128 H   0  0  0  0  0  0  0  0  0  0  0  0
    1.3154   -0.1038   -0.2190 H   0  0  0  0  0  0  0  0  0  0  0  0
    1.9233    0.4152   -2.5829 H   0  0  0  0  0  0  0  0  0  0  0  0
    1.4396   -1.2663   -3.0768 H   0  0  0  0  0  0  0  0  0  0  0  0
   -0.3912    0.3724   -3.5162 H   0  0  0  0  0  0  0  0  0  0  0  0
    0.5134   -2.5170   -1.8042 H   0  0  0  0  0  0  0  0  0  0  0  0
   -1.0041   -4.4312   -1.2967 H   0  0  0  0  0  0  0  0  0  0  0  0
   -3.4777   -4.1191   -1.3836 H   0  0  0  0  0  0  0  0  0  0  0  0
   -4.4341   -1.8930   -1.9781 H   0  0  0  0  0  0  0  0  0  0  0  0
   -2.9166    0.0212   -2.4859 H   0  0  0  0  0  0  0  0  0  0  0  0
   -1.2697    0.8407   -0.7882 H   0  0  0  0  0  0  0  0  0  0  0  0
    0.4663    1.3635   -0.9242 H   0  0  0  0  0  0  0  0  0  0  0  0
   -0.0947    2.6941   -2.9601 H   0  0  0  0  0  0  0  0  0  0  0  0
   -1.4809    4.4312   -1.8209 H   0  0  0  0  0  0  0  0  0  0  0  0
   -0.2320    3.7388   -0.6971 H   0  0  0  0  0  0  0  0  0  0  0  0
   -1.9677    3.2155   -0.5607 H   0  0  0  0  0  0  0  0  0  0  0  0
  1  2  1  0      
  1 19  1  0      
  1 20  1  0      
  1 21  1  0      
  2  3  1  0      
  2 22  1  0      
  2 23  1  0      
  3  4  2  0      
  3 24  1  0      
  4  5  1  0      
  4 25  1  0      
  5  6  1  0      
  5 26  1  0      
  5 27  1  0      
  6  7  1  0      
  6 28  1  0      
  6 29  1  0      
  7  8  1  0      
  7 14  1  0      
  7 30  1  0      
  8  9  1  0      
  8 13  2  0      
  9 10  2  0      
  9 31  1  0      
 10 11  1  0      
 10 32  1  0      
 11 12  2  0      
 11 33  1  0      
 12 13  1  0      
 12 34  1  0      
 13 35  1  0      
 14 15  1  0      
 14 36  1  0      
 14 37  1  0      
 15 16  1  0      
 15 18  1  0      
 15 38  1  0      
 16 17  3  0      
 18 39  1  0      
 18 40  1  0      
 18 41  1  0      
M  END
$$$$
