Fragment
  Chem3D Core 21.007272619303D

 25 24  0  0  0  0  0  0  0  0999 V2000
   -3.4393    1.7406    0.6181 C   0  0  0  0  0  0  0  0  0  0  0  0
   -2.1203    0.9792    0.6181 C   0  0  0  0  0  0  0  0  0  0  0  0
   -0.9820    1.9515    0.6181 C   0  0  0  0  0  0  0  0  0  0  0  0
    0.2783    1.5053    0.6181 C   0  0  0  0  0  0  0  0  0  0  0  0
    0.5512    0.0334    0.6181 C   0  0  0  0  0  0  0  0  0  0  0  0
    2.0555   -0.2048    0.6181 C   0  0  0  0  0  0  0  0  0  0  0  0
    2.3331   -1.7023    0.6181 C   0  0  0  0  0  0  0  0  0  0  0  0
    1.7413   -2.3111   -0.5820 C   0  0  0  0  0  0  0  0  0  0  0  0
    1.2752   -2.7906   -1.5273 N   0  0  0  0  0  0  0  0  0  0  0  0
    3.8376   -1.9389    0.6171 C   0  0  0  0  0  0  0  0  0  0  0  0
   -4.2856    1.0177    0.6181 H   0  0  0  0  0  0  0  0  0  0  0  0
   -3.4981    2.3798    1.5273 H   0  0  0  0  0  0  0  0  0  0  0  0
   -3.4981    2.3804   -0.2908 H   0  0  0  0  0  0  0  0  0  0  0  0
   -2.0615    0.3400   -0.2912 H   0  0  0  0  0  0  0  0  0  0  0  0
   -2.0615    0.3394    1.5269 H   0  0  0  0  0  0  0  0  0  0  0  0
   -1.1826    3.0331    0.6181 H   0  0  0  0  0  0  0  0  0  0  0  0
    1.1147    2.2197    0.6181 H   0  0  0  0  0  0  0  0  0  0  0  0
    0.1033   -0.4265    1.5273 H   0  0  0  0  0  0  0  0  0  0  0  0
    0.1029   -0.4269   -0.2908 H   0  0  0  0  0  0  0  0  0  0  0  0
    2.5033    0.2550   -0.2912 H   0  0  0  0  0  0  0  0  0  0  0  0
    2.5038    0.2555    1.5269 H   0  0  0  0  0  0  0  0  0  0  0  0
    1.8848   -2.1625    1.5269 H   0  0  0  0  0  0  0  0  0  0  0  0
    4.0416   -3.0331    0.6171 H   0  0  0  0  0  0  0  0  0  0  0  0
    4.2856   -1.4785    1.5261 H   0  0  0  0  0  0  0  0  0  0  0  0
    4.2849   -1.4783   -0.2920 H   0  0  0  0  0  0  0  0  0  0  0  0
  1  2  1  0      
  1 11  1  0      
  1 12  1  0      
  1 13  1  0      
  2  3  1  0      
  2 14  1  0      
  2 15  1  0      
  3  4  2  0      
  3 16  1  0      
  4  5  1  0      
  4 17  1  0      
  5  6  1  0      
  5 18  1  0      
  5 19  1  0      
  6  7  1  0      
  6 20  1  0      
  6 21  1  0      
  7  8  1  0      
  7 10  1  0      
  7 22  1  0      
  8  9  3  0      
 10 23  1  0      
 10 24  1  0      
 10 25  1  0      
M  END
$$$$
