Fragment
  Chem3D Core 21.007272619303D

 92 97  0  0  0  0  0  0  0  0999 V2000
   -3.6689   10.3509   -5.8081 C   0  0  0  0  0  0  0  0  0  0  0  0
   -3.1054    9.0392   -5.4577 N   0  0  0  0  0  0  0  0  0  0  0  0
   -3.8754    8.0679   -5.2000 C   0  0  0  0  0  0  0  0  0  0  0  0
   -3.3407    6.8233   -4.8675 C   0  0  0  0  0  0  0  0  0  0  0  0
   -4.1891    5.7531   -4.5837 C   0  0  0  0  0  0  0  0  0  0  0  0
   -5.5721    5.9276   -4.6323 C   0  0  0  0  0  0  0  0  0  0  0  0
   -6.1068    7.1722   -4.9647 C   0  0  0  0  0  0  0  0  0  0  0  0
   -5.2584    8.2424   -5.2486 C   0  0  0  0  0  0  0  0  0  0  0  0
   -6.3902    4.8956   -4.3586 N   0  0  0  0  0  0  0  0  0  0  0  0
   -5.8654    3.6740   -4.0324 C   0  0  0  0  0  0  0  0  0  0  0  0
   -6.6001    2.7472   -3.7866 O   0  0  0  0  0  0  0  0  0  0  0  0
   -4.5258    3.5050   -3.9853 C   0  0  0  0  0  0  0  0  0  0  0  0
   -3.8845    3.3561   -2.7557 C   0  0  0  0  0  0  0  0  0  0  0  0
   -2.5014    3.1817   -2.7071 C   0  0  0  0  0  0  0  0  0  0  0  0
   -1.7598    3.1562   -3.8882 C   0  0  0  0  0  0  0  0  0  0  0  0
   -2.4011    3.3051   -5.1178 C   0  0  0  0  0  0  0  0  0  0  0  0
   -3.7842    3.4795   -5.1664 C   0  0  0  0  0  0  0  0  0  0  0  0
   -0.4202    2.9873   -3.8411 C   0  0  0  0  0  0  0  0  0  0  0  0
    0.2221    2.9652   -4.8639 O   0  0  0  0  0  0  0  0  0  0  0  0
    0.2093    2.8412   -2.6342 N   0  0  0  0  0  0  0  0  0  0  0  0
    1.5429    2.6731   -2.5874 C   0  0  0  0  0  0  0  0  0  0  0  0
    2.1065    1.8325   -1.6275 C   0  0  0  0  0  0  0  0  0  0  0  0
    3.4896    1.6583   -1.5789 C   0  0  0  0  0  0  0  0  0  0  0  0
    4.3090    2.3245   -2.4901 C   0  0  0  0  0  0  0  0  0  0  0  0
    3.7453    3.1650   -3.4500 C   0  0  0  0  0  0  0  0  0  0  0  0
    2.3623    3.3393   -3.4986 C   0  0  0  0  0  0  0  0  0  0  0  0
    5.6426    2.1564   -2.4432 N   0  0  0  0  0  0  0  0  0  0  0  0
    6.1958    1.3315   -1.5011 C   0  0  0  0  0  0  0  0  0  0  0  0
    7.3936    1.1805   -1.4589 O   0  0  0  0  0  0  0  0  0  0  0  0
    5.4022    0.6862   -0.6185 C   0  0  0  0  0  0  0  0  0  0  0  0
    5.1916   -0.6869   -0.7443 C   0  0  0  0  0  0  0  0  0  0  0  0
    4.3721   -1.3531    0.1669 C   0  0  0  0  0  0  0  0  0  0  0  0
    3.7633   -0.6462    1.2038 C   0  0  0  0  0  0  0  0  0  0  0  0
    3.9740    0.7268    1.3297 C   0  0  0  0  0  0  0  0  0  0  0  0
    4.7934    1.3931    0.4184 C   0  0  0  0  0  0  0  0  0  0  0  0
    2.9696   -1.2915    2.0864 C   0  0  0  0  0  0  0  0  0  0  0  0
    2.4424   -0.6793    2.9844 O   0  0  0  0  0  0  0  0  0  0  0  0
    2.7628   -2.6391    1.9629 N   0  0  0  0  0  0  0  0  0  0  0  0
    1.9726   -3.2815    2.8415 C   0  0  0  0  0  0  0  0  0  0  0  0
    2.2865   -4.5803    3.2417 C   0  0  0  0  0  0  0  0  0  0  0  0
    1.4669   -5.2465    4.1528 C   0  0  0  0  0  0  0  0  0  0  0  0
    0.3336   -4.6139    4.6637 C   0  0  0  0  0  0  0  0  0  0  0  0
    0.0199   -3.3151    4.2636 C   0  0  0  0  0  0  0  0  0  0  0  0
    0.8394   -2.6489    3.3524 C   0  0  0  0  0  0  0  0  0  0  0  0
   -0.4566   -5.2564    5.5422 N   0  0  0  0  0  0  0  0  0  0  0  0
   -0.1486   -6.5312    5.9349 C   0  0  0  0  0  0  0  0  0  0  0  0
   -0.8584   -7.1082    6.7240 O   0  0  0  0  0  0  0  0  0  0  0  0
    0.9490   -7.1439    5.4400 C   0  0  0  0  0  0  0  0  0  0  0  0
    0.8124   -8.1823    4.5189 C   0  0  0  0  0  0  0  0  0  0  0  0
    1.9457   -8.8149    4.0080 C   0  0  0  0  0  0  0  0  0  0  0  0
    3.2156   -8.4091    4.4183 C   0  0  0  0  0  0  0  0  0  0  0  0
    3.3522   -7.3706    5.3394 C   0  0  0  0  0  0  0  0  0  0  0  0
    2.2189   -6.7380    5.8503 C   0  0  0  0  0  0  0  0  0  0  0  0
    4.3132   -9.0219    3.9235 C   0  0  0  0  0  0  0  0  0  0  0  0
    5.4130   -8.6704    4.2788 O   0  0  0  0  0  0  0  0  0  0  0  0
    4.1654  -10.1454    2.9270 C   0  0  0  0  0  0  0  0  0  0  0  0
   -2.8423   11.0714   -5.9989 H   0  0  0  0  0  0  0  0  0  0  0  0
   -4.2938   10.2530   -6.7240 H   0  0  0  0  0  0  0  0  0  0  0  0
   -4.2970   10.7213   -4.9673 H   0  0  0  0  0  0  0  0  0  0  0  0
   -2.0643    8.9079   -5.4211 H   0  0  0  0  0  0  0  0  0  0  0  0
   -2.2500    6.6857   -4.8291 H   0  0  0  0  0  0  0  0  0  0  0  0
   -3.7675    4.7715   -4.3216 H   0  0  0  0  0  0  0  0  0  0  0  0
   -7.1975    7.3098   -5.0030 H   0  0  0  0  0  0  0  0  0  0  0  0
   -5.6801    9.2239   -5.5108 H   0  0  0  0  0  0  0  0  0  0  0  0
   -7.3936    5.0222   -4.3939 H   0  0  0  0  0  0  0  0  0  0  0  0
   -4.4694    3.3761   -1.8243 H   0  0  0  0  0  0  0  0  0  0  0  0
   -1.9956    3.0644   -1.7374 H   0  0  0  0  0  0  0  0  0  0  0  0
   -1.8162    3.2849   -6.0492 H   0  0  0  0  0  0  0  0  0  0  0  0
   -4.2900    3.5970   -6.1361 H   0  0  0  0  0  0  0  0  0  0  0  0
   -0.3288    2.8598   -1.7773 H   0  0  0  0  0  0  0  0  0  0  0  0
    1.4603    1.3070   -0.9090 H   0  0  0  0  0  0  0  0  0  0  0  0
    3.9342    0.9954   -0.8219 H   0  0  0  0  0  0  0  0  0  0  0  0
    4.3915    3.6904   -4.1686 H   0  0  0  0  0  0  0  0  0  0  0  0
    1.9177    4.0022   -4.2555 H   0  0  0  0  0  0  0  0  0  0  0  0
    6.2371    2.6398   -3.1043 H   0  0  0  0  0  0  0  0  0  0  0  0
    5.6717   -1.2444   -1.5620 H   0  0  0  0  0  0  0  0  0  0  0  0
    4.2058   -2.4359    0.0677 H   0  0  0  0  0  0  0  0  0  0  0  0
    3.4940    1.2843    2.1475 H   0  0  0  0  0  0  0  0  0  0  0  0
    4.9596    2.4759    0.5176 H   0  0  0  0  0  0  0  0  0  0  0  0
    3.2045   -3.1520    1.2105 H   0  0  0  0  0  0  0  0  0  0  0  0
    3.1802   -5.0791    2.8388 H   0  0  0  0  0  0  0  0  0  0  0  0
    1.7143   -6.2708    4.4683 H   0  0  0  0  0  0  0  0  0  0  0  0
   -0.8738   -2.8162    4.6666 H   0  0  0  0  0  0  0  0  0  0  0  0
    0.5919   -1.6246    3.0368 H   0  0  0  0  0  0  0  0  0  0  0  0
   -1.2788   -4.7974    5.9129 H   0  0  0  0  0  0  0  0  0  0  0  0
   -0.1890   -8.5023    4.1953 H   0  0  0  0  0  0  0  0  0  0  0  0
    1.8380   -9.6339    3.2816 H   0  0  0  0  0  0  0  0  0  0  0  0
    4.3537   -7.0506    5.6628 H   0  0  0  0  0  0  0  0  0  0  0  0
    2.3266   -5.9191    6.5767 H   0  0  0  0  0  0  0  0  0  0  0  0
    3.0855  -10.3235    2.7253 H   0  0  0  0  0  0  0  0  0  0  0  0
    4.6788   -9.8694    1.9787 H   0  0  0  0  0  0  0  0  0  0  0  0
    4.6229  -11.0714    3.3416 H   0  0  0  0  0  0  0  0  0  0  0  0
  1  2  1  0      
  1 57  1  0      
  1 58  1  0      
  1 59  1  0      
  2  3  1  0      
  2 60  1  0      
  3  4  1  0      
  3  8  2  0      
  4  5  2  0      
  4 61  1  0      
  5  6  1  0      
  5 62  1  0      
  6  7  2  0      
  6  9  1  0      
  7  8  1  0      
  7 63  1  0      
  8 64  1  0      
  9 10  1  0      
  9 65  1  0      
 10 11  2  0      
 10 12  1  0      
 12 13  1  0      
 12 17  2  0      
 13 14  2  0      
 13 66  1  0      
 14 15  1  0      
 14 67  1  0      
 15 16  2  0      
 15 18  1  0      
 16 17  1  0      
 16 68  1  0      
 17 69  1  0      
 18 19  2  0      
 18 20  1  0      
 20 21  1  0      
 20 70  1  0      
 21 22  1  0      
 21 26  2  0      
 22 23  2  0      
 22 71  1  0      
 23 24  1  0      
 23 72  1  0      
 24 25  2  0      
 24 27  1  0      
 25 26  1  0      
 25 73  1  0      
 26 74  1  0      
 27 28  1  0      
 27 75  1  0      
 28 29  2  0      
 28 30  1  0      
 30 31  1  0      
 30 35  2  0      
 31 32  2  0      
 31 76  1  0      
 32 33  1  0      
 32 77  1  0      
 33 34  2  0      
 33 36  1  0      
 34 35  1  0      
 34 78  1  0      
 35 79  1  0      
 36 37  2  0      
 36 38  1  0      
 38 39  1  0      
 38 80  1  0      
 39 40  1  0      
 39 44  2  0      
 40 41  2  0      
 40 81  1  0      
 41 42  1  0      
 41 82  1  0      
 42 43  2  0      
 42 45  1  0      
 43 44  1  0      
 43 83  1  0      
 44 84  1  0      
 45 46  1  0      
 45 85  1  0      
 46 47  2  0      
 46 48  1  0      
 48 49  1  0      
 48 53  2  0      
 49 50  2  0      
 49 86  1  0      
 50 51  1  0      
 50 87  1  0      
 51 52  2  0      
 51 54  1  0      
 52 53  1  0      
 52 88  1  0      
 53 89  1  0      
 54 55  2  0      
 54 56  1  0      
 56 90  1  0      
 56 91  1  0      
 56 92  1  0      
M  END
$$$$
