Fragment
  Chem3D Core 21.007272619303D

 36 37  0  0  0  0  0  0  0  0999 V2000
   -0.4808    3.8940   -1.6004 C   0  0  0  0  0  0  0  0  0  0  0  0
    0.0827    2.5823   -1.2500 N   0  0  0  0  0  0  0  0  0  0  0  0
   -0.6873    1.6109   -0.9923 C   0  0  0  0  0  0  0  0  0  0  0  0
   -0.1526    0.3663   -0.6598 C   0  0  0  0  0  0  0  0  0  0  0  0
   -1.0010   -0.7039   -0.3760 C   0  0  0  0  0  0  0  0  0  0  0  0
   -2.3840   -0.5294   -0.4246 C   0  0  0  0  0  0  0  0  0  0  0  0
   -2.9187    0.7152   -0.7570 C   0  0  0  0  0  0  0  0  0  0  0  0
   -2.0703    1.7854   -1.0409 C   0  0  0  0  0  0  0  0  0  0  0  0
   -3.2021   -1.5613   -0.1509 N   0  0  0  0  0  0  0  0  0  0  0  0
   -2.6773   -2.7829    0.1754 C   0  0  0  0  0  0  0  0  0  0  0  0
   -3.4120   -3.7098    0.4212 O   0  0  0  0  0  0  0  0  0  0  0  0
   -1.3377   -2.9519    0.2224 C   0  0  0  0  0  0  0  0  0  0  0  0
   -0.6964   -3.1008    1.4521 C   0  0  0  0  0  0  0  0  0  0  0  0
    0.6867   -3.2752    1.5006 C   0  0  0  0  0  0  0  0  0  0  0  0
    1.4283   -3.3007    0.3196 C   0  0  0  0  0  0  0  0  0  0  0  0
    0.7870   -3.1519   -0.9100 C   0  0  0  0  0  0  0  0  0  0  0  0
   -0.5961   -2.9774   -0.9586 C   0  0  0  0  0  0  0  0  0  0  0  0
    2.7679   -3.4696    0.3666 C   0  0  0  0  0  0  0  0  0  0  0  0
    3.4102   -3.4917   -0.6562 O   0  0  0  0  0  0  0  0  0  0  0  0
    3.4618   -3.6306    1.6969 C   0  0  0  0  0  0  0  0  0  0  0  0
    0.3458    4.6145   -1.7912 H   0  0  0  0  0  0  0  0  0  0  0  0
   -1.1056    3.7961   -2.5162 H   0  0  0  0  0  0  0  0  0  0  0  0
   -1.1089    4.2644   -0.7595 H   0  0  0  0  0  0  0  0  0  0  0  0
    1.1238    2.4509   -1.2134 H   0  0  0  0  0  0  0  0  0  0  0  0
    0.9381    0.2288   -0.6214 H   0  0  0  0  0  0  0  0  0  0  0  0
   -0.5794   -1.6854   -0.1138 H   0  0  0  0  0  0  0  0  0  0  0  0
   -4.0094    0.8528   -0.7952 H   0  0  0  0  0  0  0  0  0  0  0  0
   -2.4920    2.7670   -1.3031 H   0  0  0  0  0  0  0  0  0  0  0  0
   -4.2055   -1.4347   -0.1861 H   0  0  0  0  0  0  0  0  0  0  0  0
   -1.2813   -3.0808    2.3835 H   0  0  0  0  0  0  0  0  0  0  0  0
    1.1925   -3.3926    2.4703 H   0  0  0  0  0  0  0  0  0  0  0  0
    1.3719   -3.1720   -1.8415 H   0  0  0  0  0  0  0  0  0  0  0  0
   -1.1019   -2.8600   -1.9283 H   0  0  0  0  0  0  0  0  0  0  0  0
    2.7099   -3.5835    2.5162 H   0  0  0  0  0  0  0  0  0  0  0  0
    3.9813   -4.6145    1.7271 H   0  0  0  0  0  0  0  0  0  0  0  0
    4.2055   -2.8131    1.8286 H   0  0  0  0  0  0  0  0  0  0  0  0
  1  2  1  0      
  1 21  1  0      
  1 22  1  0      
  1 23  1  0      
  2  3  1  0      
  2 24  1  0      
  3  4  1  0      
  3  8  2  0      
  4  5  2  0      
  4 25  1  0      
  5  6  1  0      
  5 26  1  0      
  6  7  2  0      
  6  9  1  0      
  7  8  1  0      
  7 27  1  0      
  8 28  1  0      
  9 10  1  0      
  9 29  1  0      
 10 11  2  0      
 10 12  1  0      
 12 13  1  0      
 12 17  2  0      
 13 14  2  0      
 13 30  1  0      
 14 15  1  0      
 14 31  1  0      
 15 16  2  0      
 15 18  1  0      
 16 17  1  0      
 16 32  1  0      
 17 33  1  0      
 18 19  2  0      
 18 20  1  0      
 20 34  1  0      
 20 35  1  0      
 20 36  1  0      
M  END
$$$$
