Fragment
  Chem3D Core 21.007272619303D

 71 73  0  0  0  0  0  0  0  0999 V2000
   -5.5065   -1.9543   -2.9984 C   0  0  0  0  0  0  0  0  0  0  0  0
   -4.7420   -2.8419   -2.2281 O   0  0  0  0  0  0  0  0  0  0  0  0
   -4.5483   -2.2324   -0.9805 C   0  0  0  0  0  0  0  0  0  0  0  0
   -3.7186   -3.1570   -0.0959 C   0  0  0  0  0  0  0  0  0  0  0  0
   -3.7056   -2.6531    1.2124 O   0  0  0  0  0  0  0  0  0  0  0  0
   -2.2863   -3.2490   -0.6113 C   0  0  0  0  0  0  0  0  0  0  0  0
   -2.2791   -3.9488   -1.8262 O   0  0  0  0  0  0  0  0  0  0  0  0
   -1.7024   -1.8595   -0.8320 C   0  0  0  0  0  0  0  0  0  0  0  0
   -2.5291   -1.0969   -1.7111 O   0  0  0  0  0  0  0  0  0  0  0  0
   -3.8398   -0.8990   -1.1809 C   0  0  0  0  0  0  0  0  0  0  0  0
   -3.7330   -0.1842    0.1597 C   0  0  0  0  0  0  0  0  0  0  0  0
   -3.0817    1.0448   -0.0158 O   0  0  0  0  0  0  0  0  0  0  0  0
   -1.6107   -1.1986    0.4010 O   0  0  0  0  0  0  0  0  0  0  0  0
   -1.0701    0.0689    0.1423 C   0  0  0  0  0  0  0  0  0  0  0  0
   -1.4389    1.0119    1.2827 C   0  0  0  0  0  0  0  0  0  0  0  0
   -1.0892    2.3224    0.9278 O   0  0  0  0  0  0  0  0  0  0  0  0
   -0.6996    0.6245    2.5590 C   0  0  0  0  0  0  0  0  0  0  0  0
   -1.2073   -0.5936    3.0323 O   0  0  0  0  0  0  0  0  0  0  0  0
    0.7927    0.4739    2.2931 C   0  0  0  0  0  0  0  0  0  0  0  0
    1.0276   -0.4654    1.2442 O   0  0  0  0  0  0  0  0  0  0  0  0
    0.4425   -0.0512    0.0096 C   0  0  0  0  0  0  0  0  0  0  0  0
    1.0177    1.3025   -0.3858 C   0  0  0  0  0  0  0  0  0  0  0  0
    2.4104    1.2009   -0.5102 O   0  0  0  0  0  0  0  0  0  0  0  0
    1.3210    1.7184    1.9221 O   0  0  0  0  0  0  0  0  0  0  0  0
    2.6900    1.5245    1.6901 C   0  0  0  0  0  0  0  0  0  0  0  0
    3.2068    2.6395    0.7869 C   0  0  0  0  0  0  0  0  0  0  0  0
    4.5127    2.3335    0.3789 O   0  0  0  0  0  0  0  0  0  0  0  0
    3.2133    3.9714    1.5296 C   0  0  0  0  0  0  0  0  0  0  0  0
    1.8907    4.3825    1.7474 O   0  0  0  0  0  0  0  0  0  0  0  0
    3.9218    3.8370    2.8713 C   0  0  0  0  0  0  0  0  0  0  0  0
    3.3293    2.8014    3.6551 O   0  0  0  0  0  0  0  0  0  0  0  0
    3.4273    1.5250    3.0229 C   0  0  0  0  0  0  0  0  0  0  0  0
    4.8953    1.1993    2.7813 C   0  0  0  0  0  0  0  0  0  0  0  0
    5.5817    1.1977    4.0038 O   0  0  0  0  0  0  0  0  0  0  0  0
    5.3881    3.5035    2.6301 C   0  0  0  0  0  0  0  0  0  0  0  0
   -5.6878   -2.3961   -4.0038 H   0  0  0  0  0  0  0  0  0  0  0  0
   -6.4811   -1.7704   -2.4934 H   0  0  0  0  0  0  0  0  0  0  0  0
   -4.9578   -0.9924   -3.1095 H   0  0  0  0  0  0  0  0  0  0  0  0
   -5.5271   -2.0463   -0.4845 H   0  0  0  0  0  0  0  0  0  0  0  0
   -4.1725   -4.1731   -0.1129 H   0  0  0  0  0  0  0  0  0  0  0  0
   -4.6023   -2.6098    1.4980 H   0  0  0  0  0  0  0  0  0  0  0  0
   -1.6673   -3.7810    0.1455 H   0  0  0  0  0  0  0  0  0  0  0  0
   -2.6450   -4.7996   -1.6543 H   0  0  0  0  0  0  0  0  0  0  0  0
   -0.6940   -1.9645   -1.2913 H   0  0  0  0  0  0  0  0  0  0  0  0
   -4.4277   -0.2867   -1.9008 H   0  0  0  0  0  0  0  0  0  0  0  0
   -3.1514   -0.8136    0.8698 H   0  0  0  0  0  0  0  0  0  0  0  0
   -4.7532   -0.0082    0.5684 H   0  0  0  0  0  0  0  0  0  0  0  0
   -3.0358    1.4538    0.8316 H   0  0  0  0  0  0  0  0  0  0  0  0
   -1.4811    0.4784   -0.8075 H   0  0  0  0  0  0  0  0  0  0  0  0
   -2.5343    0.9420    1.4667 H   0  0  0  0  0  0  0  0  0  0  0  0
   -1.5616    2.5279    0.1391 H   0  0  0  0  0  0  0  0  0  0  0  0
   -0.8489    1.4264    3.3162 H   0  0  0  0  0  0  0  0  0  0  0  0
   -2.1278   -0.4656    3.1857 H   0  0  0  0  0  0  0  0  0  0  0  0
    1.2853    0.1046    3.2203 H   0  0  0  0  0  0  0  0  0  0  0  0
    0.6736   -0.8126   -0.7686 H   0  0  0  0  0  0  0  0  0  0  0  0
    0.7694    2.0535    0.3972 H   0  0  0  0  0  0  0  0  0  0  0  0
    0.5807    1.6212   -1.3586 H   0  0  0  0  0  0  0  0  0  0  0  0
    2.7265    2.0540   -0.7544 H   0  0  0  0  0  0  0  0  0  0  0  0
    2.8627    0.5472    1.1863 H   0  0  0  0  0  0  0  0  0  0  0  0
    2.5368    2.7247   -0.0978 H   0  0  0  0  0  0  0  0  0  0  0  0
    4.4718    1.5087   -0.0744 H   0  0  0  0  0  0  0  0  0  0  0  0
    3.7554    4.7223    0.9124 H   0  0  0  0  0  0  0  0  0  0  0  0
    1.4837    4.4552    0.9010 H   0  0  0  0  0  0  0  0  0  0  0  0
    3.8289    4.7996    3.4223 H   0  0  0  0  0  0  0  0  0  0  0  0
    2.9650    0.7610    3.6872 H   0  0  0  0  0  0  0  0  0  0  0  0
    5.3391    1.9666    2.1082 H   0  0  0  0  0  0  0  0  0  0  0  0
    4.9793    0.1956    2.3075 H   0  0  0  0  0  0  0  0  0  0  0  0
    6.4811    0.9932    3.8125 H   0  0  0  0  0  0  0  0  0  0  0  0
    5.5796    3.4404    1.5356 H   0  0  0  0  0  0  0  0  0  0  0  0
    5.6287    2.5262    3.1053 H   0  0  0  0  0  0  0  0  0  0  0  0
    6.0273    4.2998    3.0731 H   0  0  0  0  0  0  0  0  0  0  0  0
  1  2  1  0      
  1 36  1  0      
  1 37  1  0      
  1 38  1  0      
  3  2  1  0      
  4  3  1  0      
  3 10  1  0      
  3 39  1  0      
  4  5  1  0      
  6  4  1  0      
  4 40  1  0      
  5 41  1  0      
  6  7  1  0      
  8  6  1  0      
  6 42  1  0      
  7 43  1  0      
  8  9  1  0      
  8 13  1  0      
  8 44  1  0      
 10  9  1  0      
 10 11  1  0      
 10 45  1  0      
 11 12  1  0      
 11 46  1  0      
 11 47  1  0      
 12 48  1  0      
 14 13  1  0      
 15 14  1  0      
 14 21  1  0      
 14 49  1  0      
 15 16  1  0      
 17 15  1  0      
 15 50  1  0      
 16 51  1  0      
 17 18  1  0      
 19 17  1  0      
 17 52  1  0      
 18 53  1  0      
 19 20  1  0      
 19 24  1  0      
 19 54  1  0      
 21 20  1  0      
 21 22  1  0      
 21 55  1  0      
 22 23  1  0      
 22 56  1  0      
 22 57  1  0      
 23 58  1  0      
 25 24  1  0      
 26 25  1  0      
 25 32  1  0      
 25 59  1  0      
 26 27  1  0      
 28 26  1  0      
 26 60  1  0      
 27 61  1  0      
 28 29  1  0      
 30 28  1  0      
 28 62  1  0      
 29 63  1  0      
 30 31  1  0      
 30 35  1  0      
 30 64  1  0      
 32 31  1  0      
 32 33  1  0      
 32 65  1  0      
 33 34  1  0      
 33 66  1  0      
 33 67  1  0      
 34 68  1  0      
 35 69  1  0      
 35 70  1  0      
 35 71  1  0      
M  END
$$$$
