Fragment
  Chem3D Core 21.007272619303D

 89 91  0  0  0  0  0  0  0  0999 V2000
   -5.5065   -1.4930   -3.4259 C   0  0  0  0  0  0  0  0  0  0  0  0
   -4.7420   -2.3805   -2.6556 O   0  0  0  0  0  0  0  0  0  0  0  0
   -4.5483   -1.7710   -1.4080 C   0  0  0  0  0  0  0  0  0  0  0  0
   -3.7186   -2.6956   -0.5234 C   0  0  0  0  0  0  0  0  0  0  0  0
   -3.7056   -2.1917    0.7848 O   0  0  0  0  0  0  0  0  0  0  0  0
   -2.2863   -2.7876   -1.0388 C   0  0  0  0  0  0  0  0  0  0  0  0
   -2.2788   -3.5113   -2.2953 N   0  0  0  0  0  0  0  0  0  0  0  0
   -2.7585   -4.7924   -2.3502 C   0  0  0  0  0  0  0  0  0  0  0  0
   -2.7508   -5.5455   -3.6577 C   0  0  0  0  0  0  0  0  0  0  0  0
   -3.1879   -5.3198   -1.3518 O   0  0  0  0  0  0  0  0  0  0  0  0
   -1.7024   -1.3981   -1.2595 C   0  0  0  0  0  0  0  0  0  0  0  0
   -2.5291   -0.6355   -2.1386 O   0  0  0  0  0  0  0  0  0  0  0  0
   -3.8398   -0.4376   -1.6084 C   0  0  0  0  0  0  0  0  0  0  0  0
   -3.7330    0.2772   -0.2678 C   0  0  0  0  0  0  0  0  0  0  0  0
   -3.0817    1.5062   -0.4433 O   0  0  0  0  0  0  0  0  0  0  0  0
   -1.6107   -0.7372   -0.0265 O   0  0  0  0  0  0  0  0  0  0  0  0
   -1.0701    0.5302   -0.2852 C   0  0  0  0  0  0  0  0  0  0  0  0
   -1.4389    1.4733    0.8552 C   0  0  0  0  0  0  0  0  0  0  0  0
   -1.0892    2.7838    0.5003 O   0  0  0  0  0  0  0  0  0  0  0  0
   -0.6996    1.0859    2.1315 C   0  0  0  0  0  0  0  0  0  0  0  0
   -1.2246   -0.1740    2.6210 N   0  0  0  0  0  0  0  0  0  0  0  0
   -2.5530   -0.2872    2.9323 C   0  0  0  0  0  0  0  0  0  0  0  0
   -3.0994   -1.5983    3.4418 C   0  0  0  0  0  0  0  0  0  0  0  0
   -3.2877    0.6624    2.7991 O   0  0  0  0  0  0  0  0  0  0  0  0
    0.7927    0.9353    1.8656 C   0  0  0  0  0  0  0  0  0  0  0  0
    1.0276   -0.0041    0.8166 O   0  0  0  0  0  0  0  0  0  0  0  0
    0.4425    0.4102   -0.4179 C   0  0  0  0  0  0  0  0  0  0  0  0
    1.0177    1.7639   -0.8133 C   0  0  0  0  0  0  0  0  0  0  0  0
    2.4104    1.6623   -0.9377 O   0  0  0  0  0  0  0  0  0  0  0  0
    1.3210    2.1798    1.4946 O   0  0  0  0  0  0  0  0  0  0  0  0
    2.6900    1.9859    1.2625 C   0  0  0  0  0  0  0  0  0  0  0  0
    3.2068    3.1008    0.3594 C   0  0  0  0  0  0  0  0  0  0  0  0
    4.5127    2.7948   -0.0487 O   0  0  0  0  0  0  0  0  0  0  0  0
    3.2133    4.4327    1.1021 C   0  0  0  0  0  0  0  0  0  0  0  0
    1.8455    4.8580    1.3273 N   0  0  0  0  0  0  0  0  0  0  0  0
    1.0041    5.0487    0.2644 C   0  0  0  0  0  0  0  0  0  0  0  0
   -0.4194    5.4913    0.4988 C   0  0  0  0  0  0  0  0  0  0  0  0
    1.4012    4.8628   -0.8612 O   0  0  0  0  0  0  0  0  0  0  0  0
    3.9218    4.2984    2.4438 C   0  0  0  0  0  0  0  0  0  0  0  0
    3.3293    3.2628    3.2276 O   0  0  0  0  0  0  0  0  0  0  0  0
    3.4273    1.9864    2.5954 C   0  0  0  0  0  0  0  0  0  0  0  0
    4.8953    1.6606    2.3538 C   0  0  0  0  0  0  0  0  0  0  0  0
    5.5817    1.6590    3.5762 O   0  0  0  0  0  0  0  0  0  0  0  0
    5.3881    3.9649    2.2026 C   0  0  0  0  0  0  0  0  0  0  0  0
   -5.6878   -1.9347   -4.4313 H   0  0  0  0  0  0  0  0  0  0  0  0
   -6.4811   -1.3090   -2.9209 H   0  0  0  0  0  0  0  0  0  0  0  0
   -4.9578   -0.5310   -3.5370 H   0  0  0  0  0  0  0  0  0  0  0  0
   -5.5271   -1.5849   -0.9120 H   0  0  0  0  0  0  0  0  0  0  0  0
   -4.1725   -3.7117   -0.5404 H   0  0  0  0  0  0  0  0  0  0  0  0
   -4.6023   -2.1484    1.0705 H   0  0  0  0  0  0  0  0  0  0  0  0
   -1.6673   -3.3196   -0.2821 H   0  0  0  0  0  0  0  0  0  0  0  0
   -1.9191   -3.0694   -3.1316 H   0  0  0  0  0  0  0  0  0  0  0  0
   -2.3213   -4.8997   -4.4560 H   0  0  0  0  0  0  0  0  0  0  0  0
   -2.1322   -6.4648   -3.5521 H   0  0  0  0  0  0  0  0  0  0  0  0
   -3.7926   -5.8276   -3.9294 H   0  0  0  0  0  0  0  0  0  0  0  0
   -0.6940   -1.5031   -1.7188 H   0  0  0  0  0  0  0  0  0  0  0  0
   -4.4277    0.1747   -2.3283 H   0  0  0  0  0  0  0  0  0  0  0  0
   -3.1514   -0.3522    0.4423 H   0  0  0  0  0  0  0  0  0  0  0  0
   -4.7532    0.4531    0.1409 H   0  0  0  0  0  0  0  0  0  0  0  0
   -3.0358    1.9152    0.4040 H   0  0  0  0  0  0  0  0  0  0  0  0
   -1.4811    0.9398   -1.2351 H   0  0  0  0  0  0  0  0  0  0  0  0
   -2.5343    1.4034    1.0392 H   0  0  0  0  0  0  0  0  0  0  0  0
   -1.5616    2.9892   -0.2884 H   0  0  0  0  0  0  0  0  0  0  0  0
   -0.8489    1.8878    2.8887 H   0  0  0  0  0  0  0  0  0  0  0  0
   -0.6092   -0.9695    2.7326 H   0  0  0  0  0  0  0  0  0  0  0  0
   -2.2778   -2.3472    3.4963 H   0  0  0  0  0  0  0  0  0  0  0  0
   -3.5331   -1.4498    4.4560 H   0  0  0  0  0  0  0  0  0  0  0  0
   -3.8898   -1.9648    2.7493 H   0  0  0  0  0  0  0  0  0  0  0  0
    1.2853    0.5660    2.7928 H   0  0  0  0  0  0  0  0  0  0  0  0
    0.6736   -0.3512   -1.1961 H   0  0  0  0  0  0  0  0  0  0  0  0
    0.7694    2.5149   -0.0303 H   0  0  0  0  0  0  0  0  0  0  0  0
    0.5807    2.0826   -1.7861 H   0  0  0  0  0  0  0  0  0  0  0  0
    2.7265    2.5154   -1.1819 H   0  0  0  0  0  0  0  0  0  0  0  0
    2.8627    1.0086    0.7587 H   0  0  0  0  0  0  0  0  0  0  0  0
    2.5368    3.1861   -0.5253 H   0  0  0  0  0  0  0  0  0  0  0  0
    4.4718    1.9701   -0.5019 H   0  0  0  0  0  0  0  0  0  0  0  0
    3.7554    5.1837    0.4849 H   0  0  0  0  0  0  0  0  0  0  0  0
    1.5128    5.0137    2.2703 H   0  0  0  0  0  0  0  0  0  0  0  0
   -0.5967    5.6091    1.5913 H   0  0  0  0  0  0  0  0  0  0  0  0
   -0.5936    6.4648   -0.0118 H   0  0  0  0  0  0  0  0  0  0  0  0
   -1.1175    4.7268    0.0901 H   0  0  0  0  0  0  0  0  0  0  0  0
    3.8289    5.2610    2.9948 H   0  0  0  0  0  0  0  0  0  0  0  0
    2.9650    1.2223    3.2597 H   0  0  0  0  0  0  0  0  0  0  0  0
    5.3391    2.4280    1.6807 H   0  0  0  0  0  0  0  0  0  0  0  0
    4.9793    0.6570    1.8800 H   0  0  0  0  0  0  0  0  0  0  0  0
    6.4811    1.4546    3.3850 H   0  0  0  0  0  0  0  0  0  0  0  0
    5.5796    3.9018    1.1080 H   0  0  0  0  0  0  0  0  0  0  0  0
    5.6287    2.9876    2.6778 H   0  0  0  0  0  0  0  0  0  0  0  0
    6.0273    4.7612    2.6456 H   0  0  0  0  0  0  0  0  0  0  0  0
  1  2  1  0      
  1 45  1  0      
  1 46  1  0      
  1 47  1  0      
  3  2  1  0      
  4  3  1  0      
  3 13  1  0      
  3 48  1  0      
  4  5  1  0      
  6  4  1  0      
  4 49  1  0      
  5 50  1  0      
  6  7  1  0      
 11  6  1  0      
  6 51  1  0      
  7  8  1  0      
  7 52  1  0      
  8  9  1  0      
  8 10  2  0      
  9 53  1  0      
  9 54  1  0      
  9 55  1  0      
 11 12  1  0      
 11 16  1  0      
 11 56  1  0      
 13 12  1  0      
 13 14  1  0      
 13 57  1  0      
 14 15  1  0      
 14 58  1  0      
 14 59  1  0      
 15 60  1  0      
 17 16  1  0      
 18 17  1  0      
 17 27  1  0      
 17 61  1  0      
 18 19  1  0      
 20 18  1  0      
 18 62  1  0      
 19 63  1  0      
 20 21  1  0      
 25 20  1  0      
 20 64  1  0      
 21 22  1  0      
 21 65  1  0      
 22 23  1  0      
 22 24  2  0      
 23 66  1  0      
 23 67  1  0      
 23 68  1  0      
 25 26  1  0      
 25 30  1  0      
 25 69  1  0      
 27 26  1  0      
 27 28  1  0      
 27 70  1  0      
 28 29  1  0      
 28 71  1  0      
 28 72  1  0      
 29 73  1  0      
 31 30  1  0      
 32 31  1  0      
 31 41  1  0      
 31 74  1  0      
 32 33  1  0      
 34 32  1  0      
 32 75  1  0      
 33 76  1  0      
 34 35  1  0      
 39 34  1  0      
 34 77  1  0      
 35 36  1  0      
 35 78  1  0      
 36 37  1  0      
 36 38  2  0      
 37 79  1  0      
 37 80  1  0      
 37 81  1  0      
 39 40  1  0      
 39 44  1  0      
 39 82  1  0      
 41 40  1  0      
 41 42  1  0      
 41 83  1  0      
 42 43  1  0      
 42 84  1  0      
 42 85  1  0      
 43 86  1  0      
 44 87  1  0      
 44 88  1  0      
 44 89  1  0      
M  END
$$$$
