Fragment
  Chem3D Core 21.007272619303D

 30 30  0  0  0  0  0  0  0  0999 V2000
   -1.9958   -0.2321   -1.7455 C   0  0  0  0  0  0  0  0  0  0  0  0
   -1.2313   -1.1196   -0.9752 O   0  0  0  0  0  0  0  0  0  0  0  0
   -1.0376   -0.5101    0.2724 C   0  0  0  0  0  0  0  0  0  0  0  0
   -0.2079   -1.4347    1.1570 C   0  0  0  0  0  0  0  0  0  0  0  0
   -0.1950   -0.9309    2.4652 O   0  0  0  0  0  0  0  0  0  0  0  0
    1.2244   -1.5267    0.6416 C   0  0  0  0  0  0  0  0  0  0  0  0
    1.2318   -2.2444   -0.6045 N   0  0  0  0  0  0  0  0  0  0  0  0
    1.8083   -0.1372    0.4209 C   0  0  0  0  0  0  0  0  0  0  0  0
    0.9816    0.6254   -0.4582 O   0  0  0  0  0  0  0  0  0  0  0  0
   -0.3291    0.8233    0.0720 C   0  0  0  0  0  0  0  0  0  0  0  0
   -0.2224    1.5381    1.4126 C   0  0  0  0  0  0  0  0  0  0  0  0
    0.4289    2.7671    1.2371 O   0  0  0  0  0  0  0  0  0  0  0  0
    1.9078    0.5807    1.7603 C   0  0  0  0  0  0  0  0  0  0  0  0
   -2.1771   -0.6739   -2.7509 H   0  0  0  0  0  0  0  0  0  0  0  0
   -2.9705   -0.0481   -1.2405 H   0  0  0  0  0  0  0  0  0  0  0  0
   -1.4472    0.7299   -1.8566 H   0  0  0  0  0  0  0  0  0  0  0  0
   -2.0164   -0.3240    0.7684 H   0  0  0  0  0  0  0  0  0  0  0  0
   -0.6618   -2.4508    1.1400 H   0  0  0  0  0  0  0  0  0  0  0  0
   -1.0916   -0.8875    2.7509 H   0  0  0  0  0  0  0  0  0  0  0  0
    1.8433   -2.0587    1.3983 H   0  0  0  0  0  0  0  0  0  0  0  0
    0.8416   -3.1761   -0.4625 H   0  0  0  0  0  0  0  0  0  0  0  0
    0.5906   -1.7961   -1.2589 H   0  0  0  0  0  0  0  0  0  0  0  0
    2.8167   -0.2422   -0.0384 H   0  0  0  0  0  0  0  0  0  0  0  0
   -0.9170    1.4356   -0.6479 H   0  0  0  0  0  0  0  0  0  0  0  0
    0.3593    0.9086    2.1227 H   0  0  0  0  0  0  0  0  0  0  0  0
   -1.2426    1.7140    1.8213 H   0  0  0  0  0  0  0  0  0  0  0  0
    0.4749    3.1761    2.0844 H   0  0  0  0  0  0  0  0  0  0  0  0
    1.5302   -0.0856    2.5680 H   0  0  0  0  0  0  0  0  0  0  0  0
    1.2950    1.5093    1.7294 H   0  0  0  0  0  0  0  0  0  0  0  0
    2.9705    0.8430    1.9625 H   0  0  0  0  0  0  0  0  0  0  0  0
  1  2  1  0      
  1 14  1  0      
  1 15  1  0      
  1 16  1  0      
  3  2  1  0      
  4  3  1  0      
  3 10  1  0      
  3 17  1  0      
  4  5  1  0      
  6  4  1  0      
  4 18  1  0      
  5 19  1  0      
  6  7  1  0      
  8  6  1  0      
  6 20  1  0      
  7 21  1  0      
  7 22  1  0      
  8  9  1  0      
  8 13  1  0      
  8 23  1  0      
 10  9  1  0      
 10 11  1  0      
 10 24  1  0      
 11 12  1  0      
 11 25  1  0      
 11 26  1  0      
 12 27  1  0      
 13 28  1  0      
 13 29  1  0      
 13 30  1  0      
M  END
$$$$
