Fragment
  Chem3D Core 21.007272619303D

 74 76  0  0  0  0  0  0  0  0999 V2000
   -5.5065   -1.9049   -2.9984 C   0  0  0  0  0  0  0  0  0  0  0  0
   -4.7420   -2.7925   -2.2281 O   0  0  0  0  0  0  0  0  0  0  0  0
   -4.5483   -2.1830   -0.9805 C   0  0  0  0  0  0  0  0  0  0  0  0
   -3.7186   -3.1076   -0.0959 C   0  0  0  0  0  0  0  0  0  0  0  0
   -3.7056   -2.6037    1.2124 O   0  0  0  0  0  0  0  0  0  0  0  0
   -2.2863   -3.1996   -0.6113 C   0  0  0  0  0  0  0  0  0  0  0  0
   -2.2789   -3.9173   -1.8574 N   0  0  0  0  0  0  0  0  0  0  0  0
   -1.7024   -1.8101   -0.8320 C   0  0  0  0  0  0  0  0  0  0  0  0
   -2.5291   -1.0475   -1.7111 O   0  0  0  0  0  0  0  0  0  0  0  0
   -3.8398   -0.8496   -1.1809 C   0  0  0  0  0  0  0  0  0  0  0  0
   -3.7330   -0.1348    0.1597 C   0  0  0  0  0  0  0  0  0  0  0  0
   -3.0817    1.0942   -0.0158 O   0  0  0  0  0  0  0  0  0  0  0  0
   -1.6107   -1.1492    0.4010 O   0  0  0  0  0  0  0  0  0  0  0  0
   -1.0701    0.1183    0.1423 C   0  0  0  0  0  0  0  0  0  0  0  0
   -1.4389    1.0613    1.2827 C   0  0  0  0  0  0  0  0  0  0  0  0
   -1.0892    2.3718    0.9278 O   0  0  0  0  0  0  0  0  0  0  0  0
   -0.6996    0.6739    2.5590 C   0  0  0  0  0  0  0  0  0  0  0  0
   -1.2203   -0.5755    3.0445 N   0  0  0  0  0  0  0  0  0  0  0  0
    0.7927    0.5233    2.2931 C   0  0  0  0  0  0  0  0  0  0  0  0
    1.0276   -0.4160    1.2442 O   0  0  0  0  0  0  0  0  0  0  0  0
    0.4425   -0.0018    0.0096 C   0  0  0  0  0  0  0  0  0  0  0  0
    1.0177    1.3519   -0.3858 C   0  0  0  0  0  0  0  0  0  0  0  0
    2.4104    1.2503   -0.5102 O   0  0  0  0  0  0  0  0  0  0  0  0
    1.3210    1.7678    1.9221 O   0  0  0  0  0  0  0  0  0  0  0  0
    2.6900    1.5739    1.6901 C   0  0  0  0  0  0  0  0  0  0  0  0
    3.2068    2.6889    0.7869 C   0  0  0  0  0  0  0  0  0  0  0  0
    4.5127    2.3829    0.3789 O   0  0  0  0  0  0  0  0  0  0  0  0
    3.2133    4.0208    1.5296 C   0  0  0  0  0  0  0  0  0  0  0  0
    1.8568    4.4425    1.7530 N   0  0  0  0  0  0  0  0  0  0  0  0
    3.9218    3.8864    2.8713 C   0  0  0  0  0  0  0  0  0  0  0  0
    3.3293    2.8508    3.6551 O   0  0  0  0  0  0  0  0  0  0  0  0
    3.4273    1.5744    3.0229 C   0  0  0  0  0  0  0  0  0  0  0  0
    4.8953    1.2487    2.7813 C   0  0  0  0  0  0  0  0  0  0  0  0
    5.5817    1.2471    4.0038 O   0  0  0  0  0  0  0  0  0  0  0  0
    5.3881    3.5529    2.6301 C   0  0  0  0  0  0  0  0  0  0  0  0
   -5.6878   -2.3467   -4.0038 H   0  0  0  0  0  0  0  0  0  0  0  0
   -6.4811   -1.7210   -2.4934 H   0  0  0  0  0  0  0  0  0  0  0  0
   -4.9578   -0.9430   -3.1095 H   0  0  0  0  0  0  0  0  0  0  0  0
   -5.5271   -1.9969   -0.4845 H   0  0  0  0  0  0  0  0  0  0  0  0
   -4.1725   -4.1237   -0.1129 H   0  0  0  0  0  0  0  0  0  0  0  0
   -4.6023   -2.5604    1.4980 H   0  0  0  0  0  0  0  0  0  0  0  0
   -1.6673   -3.7316    0.1455 H   0  0  0  0  0  0  0  0  0  0  0  0
   -2.6691   -4.8490   -1.7154 H   0  0  0  0  0  0  0  0  0  0  0  0
   -2.9201   -3.4689   -2.5118 H   0  0  0  0  0  0  0  0  0  0  0  0
   -0.6940   -1.9151   -1.2913 H   0  0  0  0  0  0  0  0  0  0  0  0
   -4.4277   -0.2373   -1.9008 H   0  0  0  0  0  0  0  0  0  0  0  0
   -3.1514   -0.7642    0.8698 H   0  0  0  0  0  0  0  0  0  0  0  0
   -4.7532    0.0412    0.5684 H   0  0  0  0  0  0  0  0  0  0  0  0
   -3.0358    1.5032    0.8316 H   0  0  0  0  0  0  0  0  0  0  0  0
   -1.4811    0.5278   -0.8075 H   0  0  0  0  0  0  0  0  0  0  0  0
   -2.5343    0.9914    1.4667 H   0  0  0  0  0  0  0  0  0  0  0  0
   -1.5616    2.5773    0.1391 H   0  0  0  0  0  0  0  0  0  0  0  0
   -0.8489    1.4758    3.3162 H   0  0  0  0  0  0  0  0  0  0  0  0
   -2.2198   -0.4804    3.2243 H   0  0  0  0  0  0  0  0  0  0  0  0
   -1.1591   -1.2785    2.3080 H   0  0  0  0  0  0  0  0  0  0  0  0
    1.2853    0.1540    3.2203 H   0  0  0  0  0  0  0  0  0  0  0  0
    0.6736   -0.7632   -0.7686 H   0  0  0  0  0  0  0  0  0  0  0  0
    0.7694    2.1029    0.3972 H   0  0  0  0  0  0  0  0  0  0  0  0
    0.5807    1.6706   -1.3586 H   0  0  0  0  0  0  0  0  0  0  0  0
    2.7265    2.1034   -0.7544 H   0  0  0  0  0  0  0  0  0  0  0  0
    2.8627    0.5966    1.1863 H   0  0  0  0  0  0  0  0  0  0  0  0
    2.5368    2.7741   -0.0978 H   0  0  0  0  0  0  0  0  0  0  0  0
    4.4718    1.5581   -0.0744 H   0  0  0  0  0  0  0  0  0  0  0  0
    3.7554    4.7717    0.9124 H   0  0  0  0  0  0  0  0  0  0  0  0
    1.3773    4.5341    0.8574 H   0  0  0  0  0  0  0  0  0  0  0  0
    1.3476    3.7056    2.2410 H   0  0  0  0  0  0  0  0  0  0  0  0
    3.8289    4.8490    3.4223 H   0  0  0  0  0  0  0  0  0  0  0  0
    2.9650    0.8104    3.6872 H   0  0  0  0  0  0  0  0  0  0  0  0
    5.3391    2.0160    2.1082 H   0  0  0  0  0  0  0  0  0  0  0  0
    4.9793    0.2450    2.3075 H   0  0  0  0  0  0  0  0  0  0  0  0
    6.4811    1.0426    3.8125 H   0  0  0  0  0  0  0  0  0  0  0  0
    5.5796    3.4898    1.5356 H   0  0  0  0  0  0  0  0  0  0  0  0
    5.6287    2.5756    3.1053 H   0  0  0  0  0  0  0  0  0  0  0  0
    6.0273    4.3492    3.0731 H   0  0  0  0  0  0  0  0  0  0  0  0
  1  2  1  0      
  1 36  1  0      
  1 37  1  0      
  1 38  1  0      
  3  2  1  0      
  4  3  1  0      
  3 10  1  0      
  3 39  1  0      
  4  5  1  0      
  6  4  1  0      
  4 40  1  0      
  5 41  1  0      
  6  7  1  0      
  8  6  1  0      
  6 42  1  0      
  7 43  1  0      
  7 44  1  0      
  8  9  1  0      
  8 13  1  0      
  8 45  1  0      
 10  9  1  0      
 10 11  1  0      
 10 46  1  0      
 11 12  1  0      
 11 47  1  0      
 11 48  1  0      
 12 49  1  0      
 14 13  1  0      
 15 14  1  0      
 14 21  1  0      
 14 50  1  0      
 15 16  1  0      
 17 15  1  0      
 15 51  1  0      
 16 52  1  0      
 17 18  1  0      
 19 17  1  0      
 17 53  1  0      
 18 54  1  0      
 18 55  1  0      
 19 20  1  0      
 19 24  1  0      
 19 56  1  0      
 21 20  1  0      
 21 22  1  0      
 21 57  1  0      
 22 23  1  0      
 22 58  1  0      
 22 59  1  0      
 23 60  1  0      
 25 24  1  0      
 26 25  1  0      
 25 32  1  0      
 25 61  1  0      
 26 27  1  0      
 28 26  1  0      
 26 62  1  0      
 27 63  1  0      
 28 29  1  0      
 30 28  1  0      
 28 64  1  0      
 29 65  1  0      
 29 66  1  0      
 30 31  1  0      
 30 35  1  0      
 30 67  1  0      
 32 31  1  0      
 32 33  1  0      
 32 68  1  0      
 33 34  1  0      
 33 69  1  0      
 33 70  1  0      
 34 71  1  0      
 35 72  1  0      
 35 73  1  0      
 35 74  1  0      
M  END
$$$$
