Fragment
  Chem3D Core 21.007272619303D

 35 35  0  0  0  0  0  0  0  0999 V2000
   -1.9958    0.7818   -1.7332 C   0  0  0  0  0  0  0  0  0  0  0  0
   -1.2313   -0.1058   -0.9629 O   0  0  0  0  0  0  0  0  0  0  0  0
   -1.0376    0.5038    0.2847 C   0  0  0  0  0  0  0  0  0  0  0  0
   -0.2079   -0.4208    1.1693 C   0  0  0  0  0  0  0  0  0  0  0  0
   -0.1950    0.0830    2.4776 O   0  0  0  0  0  0  0  0  0  0  0  0
    1.2244   -0.5128    0.6539 C   0  0  0  0  0  0  0  0  0  0  0  0
    1.2318   -1.2366   -0.6025 N   0  0  0  0  0  0  0  0  0  0  0  0
    0.7522   -2.5176   -0.6574 C   0  0  0  0  0  0  0  0  0  0  0  0
    0.7599   -3.2708   -1.9650 C   0  0  0  0  0  0  0  0  0  0  0  0
    0.3228   -3.0451    0.3409 O   0  0  0  0  0  0  0  0  0  0  0  0
    1.8083    0.8767    0.4332 C   0  0  0  0  0  0  0  0  0  0  0  0
    0.9816    1.6393   -0.4459 O   0  0  0  0  0  0  0  0  0  0  0  0
   -0.3291    1.8372    0.0843 C   0  0  0  0  0  0  0  0  0  0  0  0
   -0.2224    2.5519    1.4249 C   0  0  0  0  0  0  0  0  0  0  0  0
    0.4289    3.7810    1.2495 O   0  0  0  0  0  0  0  0  0  0  0  0
    1.9078    1.5946    1.7727 C   0  0  0  0  0  0  0  0  0  0  0  0
   -2.1771    0.3400   -2.7385 H   0  0  0  0  0  0  0  0  0  0  0  0
   -2.9705    0.9658   -1.2281 H   0  0  0  0  0  0  0  0  0  0  0  0
   -1.4472    1.7438   -1.8443 H   0  0  0  0  0  0  0  0  0  0  0  0
   -2.0164    0.6899    0.7808 H   0  0  0  0  0  0  0  0  0  0  0  0
   -0.6618   -1.4370    1.1524 H   0  0  0  0  0  0  0  0  0  0  0  0
   -1.0916    0.1264    2.7632 H   0  0  0  0  0  0  0  0  0  0  0  0
    1.8433   -1.0448    1.4107 H   0  0  0  0  0  0  0  0  0  0  0  0
    1.5916   -0.7947   -1.4389 H   0  0  0  0  0  0  0  0  0  0  0  0
    1.1894   -2.6249   -2.7632 H   0  0  0  0  0  0  0  0  0  0  0  0
    1.3785   -4.1900   -1.8594 H   0  0  0  0  0  0  0  0  0  0  0  0
   -0.2819   -3.5528   -2.2366 H   0  0  0  0  0  0  0  0  0  0  0  0
    2.8167    0.7716   -0.0260 H   0  0  0  0  0  0  0  0  0  0  0  0
   -0.9170    2.4494   -0.6356 H   0  0  0  0  0  0  0  0  0  0  0  0
    0.3593    1.9225    2.1351 H   0  0  0  0  0  0  0  0  0  0  0  0
   -1.2426    2.7279    1.8336 H   0  0  0  0  0  0  0  0  0  0  0  0
    0.4749    4.1900    2.0968 H   0  0  0  0  0  0  0  0  0  0  0  0
    1.5302    0.9283    2.5803 H   0  0  0  0  0  0  0  0  0  0  0  0
    1.2950    2.5232    1.7417 H   0  0  0  0  0  0  0  0  0  0  0  0
    2.9705    1.8568    1.9748 H   0  0  0  0  0  0  0  0  0  0  0  0
  1  2  1  0      
  1 17  1  0      
  1 18  1  0      
  1 19  1  0      
  3  2  1  0      
  4  3  1  0      
  3 13  1  0      
  3 20  1  0      
  4  5  1  0      
  6  4  1  0      
  4 21  1  0      
  5 22  1  0      
  6  7  1  0      
 11  6  1  0      
  6 23  1  0      
  7  8  1  0      
  7 24  1  0      
  8  9  1  0      
  8 10  2  0      
  9 25  1  0      
  9 26  1  0      
  9 27  1  0      
 11 12  1  0      
 11 16  1  0      
 11 28  1  0      
 13 12  1  0      
 13 14  1  0      
 13 29  1  0      
 14 15  1  0      
 14 30  1  0      
 14 31  1  0      
 15 32  1  0      
 16 33  1  0      
 16 34  1  0      
 16 35  1  0      
M  END
$$$$
