Fragment
  Chem3D Core 21.007272619323D

 31 32  0  0  0  0  0  0  0  0999 V2000
    3.0655   -0.7598   -1.7679 C   0  0  0  0  0  0  0  0  0  0  0  0
    1.8912    0.1170   -1.3535 C   0  0  0  0  0  0  0  0  0  0  0  0
    0.6097   -0.7057   -1.3756 C   0  0  0  0  0  0  0  0  0  0  0  0
   -0.5646    0.1711   -0.9611 C   0  0  0  0  0  0  0  0  0  0  0  0
   -1.8836   -0.5904   -0.9611 C   0  0  0  0  0  0  0  0  0  0  0  0
   -3.0411    0.3993   -0.9611 C   0  0  0  0  0  0  0  0  0  0  0  0
   -2.9992    0.8546    0.9838 C   0  0  0  0  0  0  0  0  0  0  0  0
   -1.8331   -0.0435    1.3755 C   0  0  0  0  0  0  0  0  0  0  0  0
   -1.9421   -1.2259    0.4218 C   0  0  0  0  0  0  0  0  0  0  0  0
   -0.5226    0.6263    0.9838 C   0  0  0  0  0  0  0  0  0  0  0  0
    0.6760    0.0132    1.6958 C   0  0  0  0  0  0  0  0  0  0  0  0
    4.0019   -0.1585   -1.7518 H   0  0  0  0  0  0  0  0  0  0  0  0
    3.1601   -1.6120   -1.0583 H   0  0  0  0  0  0  0  0  0  0  0  0
    2.8926   -1.1494   -2.7961 H   0  0  0  0  0  0  0  0  0  0  0  0
    1.7965    0.9692   -2.0631 H   0  0  0  0  0  0  0  0  0  0  0  0
    2.0640    0.5066   -0.3253 H   0  0  0  0  0  0  0  0  0  0  0  0
    0.7043   -1.5579   -0.6660 H   0  0  0  0  0  0  0  0  0  0  0  0
    0.4369   -1.0953   -2.4037 H   0  0  0  0  0  0  0  0  0  0  0  0
   -0.4899    1.0267   -1.6689 H   0  0  0  0  0  0  0  0  0  0  0  0
   -1.9479   -1.2881   -1.8259 H   0  0  0  0  0  0  0  0  0  0  0  0
   -4.0019   -0.0738   -1.2640 H   0  0  0  0  0  0  0  0  0  0  0  0
   -2.9581    1.2542   -1.6689 H   0  0  0  0  0  0  0  0  0  0  0  0
   -2.7816    1.9315    1.1614 H   0  0  0  0  0  0  0  0  0  0  0  0
   -3.9479    0.7030    1.5456 H   0  0  0  0  0  0  0  0  0  0  0  0
   -1.8554   -0.2845    2.4619 H   0  0  0  0  0  0  0  0  0  0  0  0
   -1.0941   -1.9315    0.5686 H   0  0  0  0  0  0  0  0  0  0  0  0
   -2.8692   -1.8208    0.5810 H   0  0  0  0  0  0  0  0  0  0  0  0
   -0.4273    1.7064    1.2348 H   0  0  0  0  0  0  0  0  0  0  0  0
    1.6052    0.5359    1.3763 H   0  0  0  0  0  0  0  0  0  0  0  0
    0.5490    0.1226    2.7961 H   0  0  0  0  0  0  0  0  0  0  0  0
    0.7496   -1.0664    1.4354 H   0  0  0  0  0  0  0  0  0  0  0  0
  1  2  1  0      
  1 12  1  0      
  1 13  1  0      
  1 14  1  0      
  2  3  1  0      
  2 15  1  0      
  2 16  1  0      
  3  4  1  0      
  3 17  1  0      
  3 18  1  0      
  4  5  1  0      
  4 10  1  0      
  4 19  1  0      
  5  6  1  0      
  5  9  1  0      
  5 20  1  0      
  6  7  1  0      
  6 21  1  0      
  6 22  1  0      
  7  8  1  0      
  7 23  1  0      
  7 24  1  0      
  8  9  1  0      
  8 10  1  0      
  8 25  1  0      
  9 26  1  0      
  9 27  1  0      
 10 11  1  0      
 10 28  1  0      
 11 29  1  0      
 11 30  1  0      
 11 31  1  0      
M  END
$$$$
