Fragment
  Chem3D Core 21.007272619323D

 77 82  0  0  0  0  0  0  0  0999 V2000
    1.3888   -3.4609   -4.0359 C   0  0  0  0  0  0  0  0  0  0  0  0
    0.2145   -2.5841   -3.6214 C   0  0  0  0  0  0  0  0  0  0  0  0
   -1.0670   -3.4068   -3.6435 C   0  0  0  0  0  0  0  0  0  0  0  0
   -2.2413   -2.5300   -3.2290 C   0  0  0  0  0  0  0  0  0  0  0  0
   -3.5603   -3.2915   -3.2290 C   0  0  0  0  0  0  0  0  0  0  0  0
   -4.7178   -2.3018   -3.2290 C   0  0  0  0  0  0  0  0  0  0  0  0
   -4.6759   -1.8465   -1.2841 C   0  0  0  0  0  0  0  0  0  0  0  0
   -3.5098   -2.7446   -0.8924 C   0  0  0  0  0  0  0  0  0  0  0  0
   -3.6188   -3.9270   -1.8462 C   0  0  0  0  0  0  0  0  0  0  0  0
   -2.1993   -2.0748   -1.2841 C   0  0  0  0  0  0  0  0  0  0  0  0
   -1.0007   -2.6879   -0.5721 C   0  0  0  0  0  0  0  0  0  0  0  0
    0.2708   -1.9727   -1.0093 C   0  0  0  0  0  0  0  0  0  0  0  0
    1.4694   -2.5858   -0.2973 C   0  0  0  0  0  0  0  0  0  0  0  0
    2.5487   -3.0426   -1.2699 C   0  0  0  0  0  0  0  0  0  0  0  0
    3.4952   -4.0039   -0.5630 C   0  0  0  0  0  0  0  0  0  0  0  0
    4.5793   -2.6379    0.4118 C   0  0  0  0  0  0  0  0  0  0  0  0
    3.8512   -1.4014   -0.0988 C   0  0  0  0  0  0  0  0  0  0  0  0
    3.3923   -1.7950   -1.4967 C   0  0  0  0  0  0  0  0  0  0  0  0
    2.5536   -1.2198    0.6775 C   0  0  0  0  0  0  0  0  0  0  0  0
    1.9829    0.1846    0.5301 C   0  0  0  0  0  0  0  0  0  0  0  0
    0.6910    0.2948    1.3290 C   0  0  0  0  0  0  0  0  0  0  0  0
    0.1203    1.6991    1.1816 C   0  0  0  0  0  0  0  0  0  0  0  0
   -1.3218    1.6892    0.6919 C   0  0  0  0  0  0  0  0  0  0  0  0
   -1.6890    3.0708    0.1664 C   0  0  0  0  0  0  0  0  0  0  0  0
   -2.0158    3.9465    1.9322 C   0  0  0  0  0  0  0  0  0  0  0  0
   -1.7144    2.7413    2.8133 C   0  0  0  0  0  0  0  0  0  0  0  0
   -2.1429    1.5498    1.9670 C   0  0  0  0  0  0  0  0  0  0  0  0
   -0.2065    2.5749    2.9473 C   0  0  0  0  0  0  0  0  0  0  0  0
    0.1749    1.6778    4.1175 C   0  0  0  0  0  0  0  0  0  0  0  0
    2.3253   -2.8596   -4.0197 H   0  0  0  0  0  0  0  0  0  0  0  0
    1.4834   -4.3131   -3.3263 H   0  0  0  0  0  0  0  0  0  0  0  0
    1.2159   -3.8505   -5.0640 H   0  0  0  0  0  0  0  0  0  0  0  0
    0.1198   -1.7318   -4.3310 H   0  0  0  0  0  0  0  0  0  0  0  0
    0.3873   -2.1945   -2.5932 H   0  0  0  0  0  0  0  0  0  0  0  0
   -0.9724   -4.2590   -2.9339 H   0  0  0  0  0  0  0  0  0  0  0  0
   -1.2398   -3.7964   -4.6716 H   0  0  0  0  0  0  0  0  0  0  0  0
   -2.1666   -1.6743   -3.9368 H   0  0  0  0  0  0  0  0  0  0  0  0
   -3.6246   -3.9892   -4.0938 H   0  0  0  0  0  0  0  0  0  0  0  0
   -5.6786   -2.7749   -3.5319 H   0  0  0  0  0  0  0  0  0  0  0  0
   -4.6348   -1.4468   -3.9368 H   0  0  0  0  0  0  0  0  0  0  0  0
   -4.4583   -0.7695   -1.1066 H   0  0  0  0  0  0  0  0  0  0  0  0
   -5.6246   -1.9981   -0.7223 H   0  0  0  0  0  0  0  0  0  0  0  0
   -3.5321   -2.9856    0.1940 H   0  0  0  0  0  0  0  0  0  0  0  0
   -2.7707   -4.6326   -1.6993 H   0  0  0  0  0  0  0  0  0  0  0  0
   -4.5459   -4.5219   -1.6869 H   0  0  0  0  0  0  0  0  0  0  0  0
   -2.1040   -0.9947   -1.0331 H   0  0  0  0  0  0  0  0  0  0  0  0
   -1.1277   -2.5785    0.5282 H   0  0  0  0  0  0  0  0  0  0  0  0
   -0.9271   -3.7675   -0.8325 H   0  0  0  0  0  0  0  0  0  0  0  0
    0.3978   -2.0821   -2.1096 H   0  0  0  0  0  0  0  0  0  0  0  0
    0.1972   -0.8931   -0.7489 H   0  0  0  0  0  0  0  0  0  0  0  0
    1.0008   -3.3794    0.3267 H   0  0  0  0  0  0  0  0  0  0  0  0
    2.1042   -3.5073   -2.1783 H   0  0  0  0  0  0  0  0  0  0  0  0
    4.1071   -4.5974   -1.2785 H   0  0  0  0  0  0  0  0  0  0  0  0
    3.0198   -4.7928    0.0619 H   0  0  0  0  0  0  0  0  0  0  0  0
    4.5030   -2.7474    1.5167 H   0  0  0  0  0  0  0  0  0  0  0  0
    5.6786   -2.6679    0.2405 H   0  0  0  0  0  0  0  0  0  0  0  0
    4.4944   -0.4957   -0.0293 H   0  0  0  0  0  0  0  0  0  0  0  0
    2.7834   -0.9843   -1.9556 H   0  0  0  0  0  0  0  0  0  0  0  0
    4.2426   -1.9734   -2.1924 H   0  0  0  0  0  0  0  0  0  0  0  0
    2.6195   -1.3399    1.7820 H   0  0  0  0  0  0  0  0  0  0  0  0
    2.7196    0.9259    0.9129 H   0  0  0  0  0  0  0  0  0  0  0  0
    1.7734    0.3889   -0.5438 H   0  0  0  0  0  0  0  0  0  0  0  0
   -0.0457   -0.4465    0.9462 H   0  0  0  0  0  0  0  0  0  0  0  0
    0.9004    0.0905    2.4028 H   0  0  0  0  0  0  0  0  0  0  0  0
    0.8629    2.1939    0.5163 H   0  0  0  0  0  0  0  0  0  0  0  0
   -1.4805    0.9063   -0.0831 H   0  0  0  0  0  0  0  0  0  0  0  0
   -2.6009    3.0519   -0.4714 H   0  0  0  0  0  0  0  0  0  0  0  0
   -0.9403    3.5610   -0.4954 H   0  0  0  0  0  0  0  0  0  0  0  0
   -1.3178    4.7928    2.1201 H   0  0  0  0  0  0  0  0  0  0  0  0
   -3.0135    4.4200    2.0699 H   0  0  0  0  0  0  0  0  0  0  0  0
   -2.2010    2.8369    3.8097 H   0  0  0  0  0  0  0  0  0  0  0  0
   -1.9091    0.5928    2.4849 H   0  0  0  0  0  0  0  0  0  0  0  0
   -3.2385    1.5349    1.7716 H   0  0  0  0  0  0  0  0  0  0  0  0
    0.3750    3.5014    3.1526 H   0  0  0  0  0  0  0  0  0  0  0  0
    1.2830    1.5887    4.1716 H   0  0  0  0  0  0  0  0  0  0  0  0
   -0.2079    2.1208    5.0640 H   0  0  0  0  0  0  0  0  0  0  0  0
   -0.2715    0.6686    3.9719 H   0  0  0  0  0  0  0  0  0  0  0  0
  1  2  1  0      
  1 30  1  0      
  1 31  1  0      
  1 32  1  0      
  2  3  1  0      
  2 33  1  0      
  2 34  1  0      
  3  4  1  0      
  3 35  1  0      
  3 36  1  0      
  4  5  1  0      
  4 10  1  0      
  4 37  1  0      
  5  6  1  0      
  5  9  1  0      
  5 38  1  0      
  6  7  1  0      
  6 39  1  0      
  6 40  1  0      
  7  8  1  0      
  7 41  1  0      
  7 42  1  0      
  8  9  1  0      
  8 10  1  0      
  8 43  1  0      
  9 44  1  0      
  9 45  1  0      
 10 11  1  0      
 10 46  1  0      
 11 12  1  0      
 11 47  1  0      
 11 48  1  0      
 12 13  1  0      
 12 49  1  0      
 12 50  1  0      
 13 14  1  0      
 13 19  1  0      
 13 51  1  0      
 14 15  1  0      
 14 18  1  0      
 14 52  1  0      
 15 16  1  0      
 15 53  1  0      
 15 54  1  0      
 16 17  1  0      
 16 55  1  0      
 16 56  1  0      
 17 18  1  0      
 17 19  1  0      
 17 57  1  0      
 18 58  1  0      
 18 59  1  0      
 19 20  1  0      
 19 60  1  0      
 20 21  1  0      
 20 61  1  0      
 20 62  1  0      
 21 22  1  0      
 21 63  1  0      
 21 64  1  0      
 22 23  1  0      
 22 28  1  0      
 22 65  1  0      
 23 24  1  0      
 23 27  1  0      
 23 66  1  0      
 24 25  1  0      
 24 67  1  0      
 24 68  1  0      
 25 26  1  0      
 25 69  1  0      
 25 70  1  0      
 26 27  1  0      
 26 28  1  0      
 26 71  1  0      
 27 72  1  0      
 27 73  1  0      
 28 29  1  0      
 28 74  1  0      
 29 75  1  0      
 29 76  1  0      
 29 77  1  0      
M  END
$$$$
