Fragment
  Chem3D Core 21.007272619323D

131136  0  0  0  0  0  0  0  0999 V2000
    8.3400    3.5089   -2.1575 C   0  0  0  0  0  0  0  0  0  0  0  0
    9.0775    2.3571   -1.8494 O   0  0  0  0  0  0  0  0  0  0  0  0
    8.2534    1.3175   -1.5736 C   0  0  0  0  0  0  0  0  0  0  0  0
    8.7881    0.0729   -1.2411 C   0  0  0  0  0  0  0  0  0  0  0  0
    7.9397   -0.9973   -0.9573 C   0  0  0  0  0  0  0  0  0  0  0  0
    6.5567   -0.8228   -1.0059 C   0  0  0  0  0  0  0  0  0  0  0  0
    6.0220    0.4218   -1.3383 C   0  0  0  0  0  0  0  0  0  0  0  0
    6.8704    1.4920   -1.6222 C   0  0  0  0  0  0  0  0  0  0  0  0
    5.6462   -1.9714   -0.7013 C   0  0  0  0  0  0  0  0  0  0  0  0
    6.4766   -3.2048   -0.3714 C   0  0  0  0  0  0  0  0  0  0  0  0
    4.7667   -1.6187    0.4910 C   0  0  0  0  0  0  0  0  0  0  0  0
    4.7845   -2.2542   -1.8922 C   0  0  0  0  0  0  0  0  0  0  0  0
    5.3697   -2.6018   -3.1097 C   0  0  0  0  0  0  0  0  0  0  0  0
    4.5667   -2.8652   -4.2194 C   0  0  0  0  0  0  0  0  0  0  0  0
    3.1786   -2.7811   -4.1116 C   0  0  0  0  0  0  0  0  0  0  0  0
    2.5934   -2.4337   -2.8941 C   0  0  0  0  0  0  0  0  0  0  0  0
    3.3964   -2.1702   -1.7844 C   0  0  0  0  0  0  0  0  0  0  0  0
    2.3986   -3.0370   -5.1896 O   0  0  0  0  0  0  0  0  0  0  0  0
    1.0415   -2.8969   -4.8667 C   0  0  0  0  0  0  0  0  0  0  0  0
    0.1932   -3.1906   -6.0970 C   0  0  0  0  0  0  0  0  0  0  0  0
    0.4367   -4.5013   -6.5314 O   0  0  0  0  0  0  0  0  0  0  0  0
   -1.2806   -3.0390   -5.7446 C   0  0  0  0  0  0  0  0  0  0  0  0
   -1.8546   -2.0454   -6.5502 O   0  0  0  0  0  0  0  0  0  0  0  0
   -3.1684   -1.8885   -6.2580 C   0  0  0  0  0  0  0  0  0  0  0  0
   -3.9287   -0.9452   -6.9490 C   0  0  0  0  0  0  0  0  0  0  0  0
   -5.2811   -0.7835   -6.6481 C   0  0  0  0  0  0  0  0  0  0  0  0
   -5.8731   -1.5653   -5.6562 C   0  0  0  0  0  0  0  0  0  0  0  0
   -5.1129   -2.5087   -4.9652 C   0  0  0  0  0  0  0  0  0  0  0  0
   -3.7604   -2.6703   -5.2661 C   0  0  0  0  0  0  0  0  0  0  0  0
   -7.3245   -1.3919   -5.3333 C   0  0  0  0  0  0  0  0  0  0  0  0
   -7.9174   -0.3078   -6.2237 C   0  0  0  0  0  0  0  0  0  0  0  0
   -8.0582   -2.7043   -5.5757 C   0  0  0  0  0  0  0  0  0  0  0  0
   -7.4720   -0.9941   -3.8977 C   0  0  0  0  0  0  0  0  0  0  0  0
   -8.7408   -0.7738   -3.3619 C   0  0  0  0  0  0  0  0  0  0  0  0
   -8.8782   -0.4031   -2.0242 C   0  0  0  0  0  0  0  0  0  0  0  0
   -7.7468   -0.2528   -1.2224 C   0  0  0  0  0  0  0  0  0  0  0  0
   -6.4780   -0.4732   -1.7582 C   0  0  0  0  0  0  0  0  0  0  0  0
   -6.3406   -0.8439   -3.0959 C   0  0  0  0  0  0  0  0  0  0  0  0
   -7.8803    0.1073    0.0770 O   0  0  0  0  0  0  0  0  0  0  0  0
   -6.6272    0.2015    0.6988 C   0  0  0  0  0  0  0  0  0  0  0  0
   -6.8116    0.6072    2.1551 C   0  0  0  0  0  0  0  0  0  0  0  0
   -7.5884   -0.3558    2.8144 O   0  0  0  0  0  0  0  0  0  0  0  0
   -5.4497    0.7083    2.8295 C   0  0  0  0  0  0  0  0  0  0  0  0
   -5.2586    2.0134    3.3047 O   0  0  0  0  0  0  0  0  0  0  0  0
   -4.0526    2.1329    3.9107 C   0  0  0  0  0  0  0  0  0  0  0  0
   -3.6641    3.3568    4.4554 C   0  0  0  0  0  0  0  0  0  0  0  0
   -2.4225    3.4799    5.0791 C   0  0  0  0  0  0  0  0  0  0  0  0
   -1.5696    2.3790    5.1583 C   0  0  0  0  0  0  0  0  0  0  0  0
   -1.9581    1.1552    4.6137 C   0  0  0  0  0  0  0  0  0  0  0  0
   -3.1997    1.0321    3.9898 C   0  0  0  0  0  0  0  0  0  0  0  0
   -0.2372    2.5112    5.8277 C   0  0  0  0  0  0  0  0  0  0  0  0
   -0.0606    3.9375    6.3316 C   0  0  0  0  0  0  0  0  0  0  0  0
   -0.1623    1.5454    7.0030 C   0  0  0  0  0  0  0  0  0  0  0  0
    0.8476    2.1908    4.8471 C   0  0  0  0  0  0  0  0  0  0  0  0
    2.1724    2.1069    5.2755 C   0  0  0  0  0  0  0  0  0  0  0  0
    3.1832    1.8085    4.3617 C   0  0  0  0  0  0  0  0  0  0  0  0
    2.8691    1.5938    3.0198 C   0  0  0  0  0  0  0  0  0  0  0  0
    1.5444    1.6775    2.5915 C   0  0  0  0  0  0  0  0  0  0  0  0
    0.5336    1.9761    3.5052 C   0  0  0  0  0  0  0  0  0  0  0  0
    3.8510    1.3039    2.1322 O   0  0  0  0  0  0  0  0  0  0  0  0
    3.3228    1.1263    0.8457 C   0  0  0  0  0  0  0  0  0  0  0  0
    4.4496    0.8024   -0.1263 C   0  0  0  0  0  0  0  0  0  0  0  0
    4.4974    1.7802   -1.1300 O   0  0  0  0  0  0  0  0  0  0  0  0
    5.7751    0.7803    0.6234 C   0  0  0  0  0  0  0  0  0  0  0  0
    6.0252    2.1437    1.2543 C   0  0  0  0  0  0  0  0  0  0  0  0
    9.0368    4.3478   -2.3800 H   0  0  0  0  0  0  0  0  0  0  0  0
    7.7006    3.3125   -3.0471 H   0  0  0  0  0  0  0  0  0  0  0  0
    7.6974    3.7807   -1.2904 H   0  0  0  0  0  0  0  0  0  0  0  0
    9.8788   -0.0647   -1.2027 H   0  0  0  0  0  0  0  0  0  0  0  0
    8.3614   -1.9789   -0.6952 H   0  0  0  0  0  0  0  0  0  0  0  0
    4.9313    0.5593   -1.3766 H   0  0  0  0  0  0  0  0  0  0  0  0
    6.4488    2.4735   -1.8844 H   0  0  0  0  0  0  0  0  0  0  0  0
    5.7997   -4.0588   -0.1449 H   0  0  0  0  0  0  0  0  0  0  0  0
    7.1194   -3.4625   -1.2427 H   0  0  0  0  0  0  0  0  0  0  0  0
    7.1173   -2.9945    0.5140 H   0  0  0  0  0  0  0  0  0  0  0  0
    4.0893   -2.4721    0.7184 H   0  0  0  0  0  0  0  0  0  0  0  0
    4.1594   -0.7178    0.2497 H   0  0  0  0  0  0  0  0  0  0  0  0
    5.4083   -1.4087    1.3759 H   0  0  0  0  0  0  0  0  0  0  0  0
    6.4644   -2.6682   -3.1947 H   0  0  0  0  0  0  0  0  0  0  0  0
    5.0281   -3.1392   -5.1796 H   0  0  0  0  0  0  0  0  0  0  0  0
    1.4987   -2.3674   -2.8091 H   0  0  0  0  0  0  0  0  0  0  0  0
    2.9349   -1.8961   -0.8242 H   0  0  0  0  0  0  0  0  0  0  0  0
    0.7779   -3.6121   -4.0557 H   0  0  0  0  0  0  0  0  0  0  0  0
    0.8477   -1.8564   -4.5225 H   0  0  0  0  0  0  0  0  0  0  0  0
    0.4570   -2.4760   -6.9085 H   0  0  0  0  0  0  0  0  0  0  0  0
   -0.1037   -4.6433   -7.2897 H   0  0  0  0  0  0  0  0  0  0  0  0
   -1.8045   -4.0054   -5.9185 H   0  0  0  0  0  0  0  0  0  0  0  0
   -1.3781   -2.7505   -4.6741 H   0  0  0  0  0  0  0  0  0  0  0  0
   -3.4618   -0.3287   -7.7313 H   0  0  0  0  0  0  0  0  0  0  0  0
   -5.8807   -0.0395   -7.1930 H   0  0  0  0  0  0  0  0  0  0  0  0
   -5.5798   -3.1253   -4.1831 H   0  0  0  0  0  0  0  0  0  0  0  0
   -3.1608   -3.4142   -4.7211 H   0  0  0  0  0  0  0  0  0  0  0  0
   -8.9965   -0.1788   -5.9836 H   0  0  0  0  0  0  0  0  0  0  0  0
   -7.3813    0.6514   -6.0465 H   0  0  0  0  0  0  0  0  0  0  0  0
   -7.8078   -0.6035   -7.2911 H   0  0  0  0  0  0  0  0  0  0  0  0
   -9.1375   -2.5764   -5.3359 H   0  0  0  0  0  0  0  0  0  0  0  0
   -7.6253   -3.4964   -4.9245 H   0  0  0  0  0  0  0  0  0  0  0  0
   -7.9479   -2.9991   -6.6433 H   0  0  0  0  0  0  0  0  0  0  0  0
   -9.6331   -0.8924   -3.9942 H   0  0  0  0  0  0  0  0  0  0  0  0
   -9.8788   -0.2292   -1.6016 H   0  0  0  0  0  0  0  0  0  0  0  0
   -5.5858   -0.3548   -1.1258 H   0  0  0  0  0  0  0  0  0  0  0  0
   -5.3400   -1.0177   -3.5185 H   0  0  0  0  0  0  0  0  0  0  0  0
   -6.1149   -0.7854    0.6511 H   0  0  0  0  0  0  0  0  0  0  0  0
   -6.0105    0.9664    0.1760 H   0  0  0  0  0  0  0  0  0  0  0  0
   -7.3245    1.5938    2.2032 H   0  0  0  0  0  0  0  0  0  0  0  0
   -7.6791   -0.0700    3.7075 H   0  0  0  0  0  0  0  0  0  0  0  0
   -5.4042   -0.0066    3.6813 H   0  0  0  0  0  0  0  0  0  0  0  0
   -4.6523    0.4611    2.0935 H   0  0  0  0  0  0  0  0  0  0  0  0
   -4.3367    4.2249    4.3930 H   0  0  0  0  0  0  0  0  0  0  0  0
   -2.1160    4.4451    5.5086 H   0  0  0  0  0  0  0  0  0  0  0  0
   -1.2855    0.2870    4.6762 H   0  0  0  0  0  0  0  0  0  0  0  0
   -3.5061    0.0669    3.5603 H   0  0  0  0  0  0  0  0  0  0  0  0
    0.9300    4.0357    6.8294 H   0  0  0  0  0  0  0  0  0  0  0  0
   -0.1153    4.6433    5.4728 H   0  0  0  0  0  0  0  0  0  0  0  0
   -0.8672    4.1757    7.0607 H   0  0  0  0  0  0  0  0  0  0  0  0
    0.8280    1.6428    7.5014 H   0  0  0  0  0  0  0  0  0  0  0  0
   -0.2907    0.5030    6.6346 H   0  0  0  0  0  0  0  0  0  0  0  0
   -0.9692    1.7845    7.7313 H   0  0  0  0  0  0  0  0  0  0  0  0
    2.4200    2.2761    6.3338 H   0  0  0  0  0  0  0  0  0  0  0  0
    4.2280    1.7424    4.6994 H   0  0  0  0  0  0  0  0  0  0  0  0
    1.2967    1.5082    1.5332 H   0  0  0  0  0  0  0  0  0  0  0  0
   -0.5112    2.0422    3.1674 H   0  0  0  0  0  0  0  0  0  0  0  0
    2.5915    0.2873    0.8581 H   0  0  0  0  0  0  0  0  0  0  0  0
    2.8114    2.0606    0.5226 H   0  0  0  0  0  0  0  0  0  0  0  0
    4.2665   -0.1938   -0.5876 H   0  0  0  0  0  0  0  0  0  0  0  0
    5.2033    1.5452   -1.7078 H   0  0  0  0  0  0  0  0  0  0  0  0
    5.7369    0.0045    1.4206 H   0  0  0  0  0  0  0  0  0  0  0  0
    6.5988    0.5436   -0.0867 H   0  0  0  0  0  0  0  0  0  0  0  0
    6.9938    2.1275    1.8022 H   0  0  0  0  0  0  0  0  0  0  0  0
    6.0633    2.9194    0.4571 H   0  0  0  0  0  0  0  0  0  0  0  0
    5.2014    2.3804    1.9644 H   0  0  0  0  0  0  0  0  0  0  0  0
  1  2  1  0      
  1 66  1  0      
  1 67  1  0      
  1 68  1  0      
  2  3  1  0      
  3  4  1  0      
  3  8  2  0      
  4  5  2  0      
  4 69  1  0      
  5  6  1  0      
  5 70  1  0      
  6  7  2  0      
  6  9  1  0      
  7  8  1  0      
  7 71  1  0      
  8 72  1  0      
  9 10  1  0      
  9 11  1  0      
  9 12  1  0      
 10 73  1  0      
 10 74  1  0      
 10 75  1  0      
 11 76  1  0      
 11 77  1  0      
 11 78  1  0      
 12 13  1  0      
 12 17  2  0      
 13 14  2  0      
 13 79  1  0      
 14 15  1  0      
 14 80  1  0      
 15 16  2  0      
 15 18  1  0      
 16 17  1  0      
 16 81  1  0      
 17 82  1  0      
 18 19  1  0      
 19 20  1  0      
 19 83  1  0      
 19 84  1  0      
 20 21  1  0      
 20 22  1  0      
 20 85  1  0      
 21 86  1  0      
 22 23  1  0      
 22 87  1  0      
 22 88  1  0      
 23 24  1  0      
 24 25  1  0      
 24 29  2  0      
 25 26  2  0      
 25 89  1  0      
 26 27  1  0      
 26 90  1  0      
 27 28  2  0      
 27 30  1  0      
 28 29  1  0      
 28 91  1  0      
 29 92  1  0      
 30 31  1  0      
 30 32  1  0      
 30 33  1  0      
 31 93  1  0      
 31 94  1  0      
 31 95  1  0      
 32 96  1  0      
 32 97  1  0      
 32 98  1  0      
 33 34  1  0      
 33 38  2  0      
 34 35  2  0      
 34 99  1  0      
 35 36  1  0      
 35100  1  0      
 36 37  2  0      
 36 39  1  0      
 37 38  1  0      
 37101  1  0      
 38102  1  0      
 39 40  1  0      
 40 41  1  0      
 40103  1  0      
 40104  1  0      
 41 42  1  0      
 41 43  1  0      
 41105  1  0      
 42106  1  0      
 43 44  1  0      
 43107  1  0      
 43108  1  0      
 44 45  1  0      
 45 46  1  0      
 45 50  2  0      
 46 47  2  0      
 46109  1  0      
 47 48  1  0      
 47110  1  0      
 48 49  2  0      
 48 51  1  0      
 49 50  1  0      
 49111  1  0      
 50112  1  0      
 51 52  1  0      
 51 53  1  0      
 51 54  1  0      
 52113  1  0      
 52114  1  0      
 52115  1  0      
 53116  1  0      
 53117  1  0      
 53118  1  0      
 54 55  1  0      
 54 59  2  0      
 55 56  2  0      
 55119  1  0      
 56 57  1  0      
 56120  1  0      
 57 58  2  0      
 57 60  1  0      
 58 59  1  0      
 58121  1  0      
 59122  1  0      
 60 61  1  0      
 61 62  1  0      
 61123  1  0      
 61124  1  0      
 62 63  1  0      
 62 64  1  0      
 62125  1  0      
 63126  1  0      
 64 65  1  0      
 64127  1  0      
 64128  1  0      
 65129  1  0      
 65130  1  0      
 65131  1  0      
M  END
$$$$
