Fragment
  Chem3D Core 21.007272619323D

 49 50  0  0  0  0  0  0  0  0999 V2000
    4.8912    3.6566    0.9997 C   0  0  0  0  0  0  0  0  0  0  0  0
    5.6288    2.5048    1.3078 O   0  0  0  0  0  0  0  0  0  0  0  0
    4.8047    1.4652    1.5836 C   0  0  0  0  0  0  0  0  0  0  0  0
    5.3394    0.2206    1.9161 C   0  0  0  0  0  0  0  0  0  0  0  0
    4.4910   -0.8496    2.1999 C   0  0  0  0  0  0  0  0  0  0  0  0
    3.1080   -0.6751    2.1513 C   0  0  0  0  0  0  0  0  0  0  0  0
    2.5733    0.5695    1.8189 C   0  0  0  0  0  0  0  0  0  0  0  0
    3.4217    1.6397    1.5350 C   0  0  0  0  0  0  0  0  0  0  0  0
    2.1975   -1.8237    2.4559 C   0  0  0  0  0  0  0  0  0  0  0  0
    3.0279   -3.0570    2.7858 C   0  0  0  0  0  0  0  0  0  0  0  0
    1.3180   -1.4710    3.6482 C   0  0  0  0  0  0  0  0  0  0  0  0
    1.3357   -2.1065    1.2650 C   0  0  0  0  0  0  0  0  0  0  0  0
    1.9209   -2.4541    0.0475 C   0  0  0  0  0  0  0  0  0  0  0  0
    1.1179   -2.7175   -1.0622 C   0  0  0  0  0  0  0  0  0  0  0  0
   -0.2702   -2.6334   -0.9544 C   0  0  0  0  0  0  0  0  0  0  0  0
   -0.8554   -2.2859    0.2631 C   0  0  0  0  0  0  0  0  0  0  0  0
   -0.0524   -2.0224    1.3728 C   0  0  0  0  0  0  0  0  0  0  0  0
   -1.0502   -2.8893   -2.0324 O   0  0  0  0  0  0  0  0  0  0  0  0
   -2.4073   -2.7492   -1.7095 C   0  0  0  0  0  0  0  0  0  0  0  0
   -3.2555   -3.0429   -2.9398 C   0  0  0  0  0  0  0  0  0  0  0  0
   -3.0121   -4.3535   -3.3741 O   0  0  0  0  0  0  0  0  0  0  0  0
   -4.7294   -2.8912   -2.5874 C   0  0  0  0  0  0  0  0  0  0  0  0
   -5.3529   -1.8119   -3.4625 C   0  0  0  0  0  0  0  0  0  0  0  0
    5.5880    4.4955    0.7772 H   0  0  0  0  0  0  0  0  0  0  0  0
    4.2519    3.4602    0.1101 H   0  0  0  0  0  0  0  0  0  0  0  0
    4.2486    3.9284    1.8668 H   0  0  0  0  0  0  0  0  0  0  0  0
    6.4300    0.0830    1.9545 H   0  0  0  0  0  0  0  0  0  0  0  0
    4.9126   -1.8312    2.4620 H   0  0  0  0  0  0  0  0  0  0  0  0
    1.4826    0.7071    1.7806 H   0  0  0  0  0  0  0  0  0  0  0  0
    3.0000    2.6213    1.2728 H   0  0  0  0  0  0  0  0  0  0  0  0
    2.3509   -3.9110    3.0123 H   0  0  0  0  0  0  0  0  0  0  0  0
    3.6706   -3.3148    1.9145 H   0  0  0  0  0  0  0  0  0  0  0  0
    3.6686   -2.8468    3.6713 H   0  0  0  0  0  0  0  0  0  0  0  0
    0.6406   -2.3244    3.8756 H   0  0  0  0  0  0  0  0  0  0  0  0
    0.7106   -0.5700    3.4069 H   0  0  0  0  0  0  0  0  0  0  0  0
    1.9596   -1.2609    4.5331 H   0  0  0  0  0  0  0  0  0  0  0  0
    3.0156   -2.5205   -0.0375 H   0  0  0  0  0  0  0  0  0  0  0  0
    1.5794   -2.9915   -2.0224 H   0  0  0  0  0  0  0  0  0  0  0  0
   -1.9501   -2.2197    0.3481 H   0  0  0  0  0  0  0  0  0  0  0  0
   -0.5138   -1.7483    2.3330 H   0  0  0  0  0  0  0  0  0  0  0  0
   -2.6708   -3.4644   -0.8985 H   0  0  0  0  0  0  0  0  0  0  0  0
   -2.6010   -1.7086   -1.3653 H   0  0  0  0  0  0  0  0  0  0  0  0
   -2.9918   -2.3283   -3.7513 H   0  0  0  0  0  0  0  0  0  0  0  0
   -3.5525   -4.4955   -4.1325 H   0  0  0  0  0  0  0  0  0  0  0  0
   -5.2533   -3.8577   -2.7613 H   0  0  0  0  0  0  0  0  0  0  0  0
   -4.8269   -2.6028   -1.5168 H   0  0  0  0  0  0  0  0  0  0  0  0
   -6.4300   -1.7011   -3.2050 H   0  0  0  0  0  0  0  0  0  0  0  0
   -4.8291   -0.8455   -3.2886 H   0  0  0  0  0  0  0  0  0  0  0  0
   -5.2554   -2.1004   -4.5331 H   0  0  0  0  0  0  0  0  0  0  0  0
  1  2  1  0      
  1 24  1  0      
  1 25  1  0      
  1 26  1  0      
  2  3  1  0      
  3  4  1  0      
  3  8  2  0      
  4  5  2  0      
  4 27  1  0      
  5  6  1  0      
  5 28  1  0      
  6  7  2  0      
  6  9  1  0      
  7  8  1  0      
  7 29  1  0      
  8 30  1  0      
  9 10  1  0      
  9 11  1  0      
  9 12  1  0      
 10 31  1  0      
 10 32  1  0      
 10 33  1  0      
 11 34  1  0      
 11 35  1  0      
 11 36  1  0      
 12 13  1  0      
 12 17  2  0      
 13 14  2  0      
 13 37  1  0      
 14 15  1  0      
 14 38  1  0      
 15 16  2  0      
 15 18  1  0      
 16 17  1  0      
 16 39  1  0      
 17 40  1  0      
 18 19  1  0      
 19 20  1  0      
 19 41  1  0      
 19 42  1  0      
 20 21  1  0      
 20 22  1  0      
 20 43  1  0      
 21 44  1  0      
 22 23  1  0      
 22 45  1  0      
 22 46  1  0      
 23 47  1  0      
 23 48  1  0      
 23 49  1  0      
M  END
$$$$
