Fragment
  Chem3D Core 21.007272619313D

 62 61  0  0  0  0  0  0  0  0999 V2000
    6.6548    0.4340   -3.0577 C   0  0  0  0  0  0  0  0  0  0  0  0
    5.3359   -0.3275   -3.0577 C   0  0  0  0  0  0  0  0  0  0  0  0
    4.1777    0.6615   -3.0577 C   0  0  0  0  0  0  0  0  0  0  0  0
    2.8588   -0.1000   -3.0577 C   0  0  0  0  0  0  0  0  0  0  0  0
    1.7007    0.8890   -3.0577 C   0  0  0  0  0  0  0  0  0  0  0  0
    1.7739    1.6954   -4.2023 O   0  0  0  0  0  0  0  0  0  0  0  0
    0.7595    2.5679   -4.2104 C   0  0  0  0  0  0  0  0  0  0  0  0
    0.6187    3.5508   -5.3466 C   0  0  0  0  0  0  0  0  0  0  0  0
   -0.0437    2.5687   -3.3080 O   0  0  0  0  0  0  0  0  0  0  0  0
    0.3825    0.1261   -3.0587 C   0  0  0  0  0  0  0  0  0  0  0  0
   -0.4176    0.4921   -1.8155 C   0  0  0  0  0  0  0  0  0  0  0  0
   -1.7357   -0.2707   -1.8164 C   0  0  0  0  0  0  0  0  0  0  0  0
   -2.5358    0.0953   -0.5733 C   0  0  0  0  0  0  0  0  0  0  0  0
   -2.7942    1.4733   -0.5719 O   0  0  0  0  0  0  0  0  0  0  0  0
   -3.4971    1.8038    0.5175 C   0  0  0  0  0  0  0  0  0  0  0  0
   -3.9011    3.2393    0.7480 C   0  0  0  0  0  0  0  0  0  0  0  0
   -3.8084    0.9530    1.3166 O   0  0  0  0  0  0  0  0  0  0  0  0
   -3.8540   -0.6676   -0.5760 C   0  0  0  0  0  0  0  0  0  0  0  0
   -3.9361   -1.5451    0.6661 C   0  0  0  0  0  0  0  0  0  0  0  0
   -5.2542   -2.3080    0.6634 C   0  0  0  0  0  0  0  0  0  0  0  0
   -5.3363   -3.1854    1.9055 C   0  0  0  0  0  0  0  0  0  0  0  0
   -5.2647   -2.3816    3.0520 O   0  0  0  0  0  0  0  0  0  0  0  0
   -5.3362   -3.1449    4.1486 C   0  0  0  0  0  0  0  0  0  0  0  0
   -5.2802   -2.5086    5.5157 C   0  0  0  0  0  0  0  0  0  0  0  0
   -5.4455   -4.3434    4.0442 O   0  0  0  0  0  0  0  0  0  0  0  0
   -6.6553   -3.9470    1.9019 C   0  0  0  0  0  0  0  0  0  0  0  0
    7.5012   -0.2888   -3.0577 H   0  0  0  0  0  0  0  0  0  0  0  0
    6.7135    1.0732   -3.9670 H   0  0  0  0  0  0  0  0  0  0  0  0
    6.7136    1.0739   -2.1489 H   0  0  0  0  0  0  0  0  0  0  0  0
    5.2772   -0.9667   -2.1485 H   0  0  0  0  0  0  0  0  0  0  0  0
    5.2771   -0.9674   -3.9666 H   0  0  0  0  0  0  0  0  0  0  0  0
    4.2364    1.3007   -3.9670 H   0  0  0  0  0  0  0  0  0  0  0  0
    4.2365    1.3014   -2.1489 H   0  0  0  0  0  0  0  0  0  0  0  0
    2.8001   -0.7392   -2.1485 H   0  0  0  0  0  0  0  0  0  0  0  0
    2.8000   -0.7399   -3.9666 H   0  0  0  0  0  0  0  0  0  0  0  0
    1.7594    1.5288   -2.1489 H   0  0  0  0  0  0  0  0  0  0  0  0
    1.4461    3.3974   -6.0752 H   0  0  0  0  0  0  0  0  0  0  0  0
   -0.3579    3.3909   -5.8560 H   0  0  0  0  0  0  0  0  0  0  0  0
    0.6642    4.5886   -4.9470 H   0  0  0  0  0  0  0  0  0  0  0  0
   -0.2009    0.3957   -3.9674 H   0  0  0  0  0  0  0  0  0  0  0  0
    0.5872   -0.9679   -3.0591 H   0  0  0  0  0  0  0  0  0  0  0  0
    0.1658    0.2226   -0.9068 H   0  0  0  0  0  0  0  0  0  0  0  0
   -0.6223    1.5862   -1.8151 H   0  0  0  0  0  0  0  0  0  0  0  0
   -2.3191   -0.0012   -2.7251 H   0  0  0  0  0  0  0  0  0  0  0  0
   -1.5310   -1.3648   -1.8169 H   0  0  0  0  0  0  0  0  0  0  0  0
   -1.9524   -0.1735    0.3357 H   0  0  0  0  0  0  0  0  0  0  0  0
   -3.5262    3.8697   -0.0891 H   0  0  0  0  0  0  0  0  0  0  0  0
   -5.0109    3.3087    0.7959 H   0  0  0  0  0  0  0  0  0  0  0  0
   -3.4643    3.5981    1.7068 H   0  0  0  0  0  0  0  0  0  0  0  0
   -4.7003    0.0552   -0.5755 H   0  0  0  0  0  0  0  0  0  0  0  0
   -3.9109   -1.3064   -1.4857 H   0  0  0  0  0  0  0  0  0  0  0  0
   -3.0897   -2.2679    0.6657 H   0  0  0  0  0  0  0  0  0  0  0  0
   -3.8792   -0.9063    1.5758 H   0  0  0  0  0  0  0  0  0  0  0  0
   -6.1006   -1.5852    0.6639 H   0  0  0  0  0  0  0  0  0  0  0  0
   -5.3112   -2.9467   -0.2463 H   0  0  0  0  0  0  0  0  0  0  0  0
   -4.4897   -3.9080    1.9057 H   0  0  0  0  0  0  0  0  0  0  0  0
   -5.1793   -1.4054    5.4082 H   0  0  0  0  0  0  0  0  0  0  0  0
   -6.2155   -2.7426    6.0718 H   0  0  0  0  0  0  0  0  0  0  0  0
   -4.4050   -2.9083    6.0752 H   0  0  0  0  0  0  0  0  0  0  0  0
   -6.7163   -4.5886    2.8093 H   0  0  0  0  0  0  0  0  0  0  0  0
   -6.7119   -4.5856    0.9921 H   0  0  0  0  0  0  0  0  0  0  0  0
   -7.5012   -3.2236    1.9017 H   0  0  0  0  0  0  0  0  0  0  0  0
  1  2  1  0      
  1 27  1  0      
  1 28  1  0      
  1 29  1  0      
  2  3  1  0      
  2 30  1  0      
  2 31  1  0      
  3  4  1  0      
  3 32  1  0      
  3 33  1  0      
  4  5  1  0      
  4 34  1  0      
  4 35  1  0      
  5  6  1  0      
  5 10  1  0      
  5 36  1  0      
  6  7  1  0      
  7  8  1  0      
  7  9  2  0      
  8 37  1  0      
  8 38  1  0      
  8 39  1  0      
 10 11  1  0      
 10 40  1  0      
 10 41  1  0      
 11 12  1  0      
 11 42  1  0      
 11 43  1  0      
 12 13  1  0      
 12 44  1  0      
 12 45  1  0      
 13 14  1  0      
 13 18  1  0      
 13 46  1  0      
 14 15  1  0      
 15 16  1  0      
 15 17  2  0      
 16 47  1  0      
 16 48  1  0      
 16 49  1  0      
 18 19  1  0      
 18 50  1  0      
 18 51  1  0      
 19 20  1  0      
 19 52  1  0      
 19 53  1  0      
 20 21  1  0      
 20 54  1  0      
 20 55  1  0      
 21 22  1  0      
 21 26  1  0      
 21 56  1  0      
 22 23  1  0      
 23 24  1  0      
 23 25  2  0      
 24 57  1  0      
 24 58  1  0      
 24 59  1  0      
 26 60  1  0      
 26 61  1  0      
 26 62  1  0      
M  END
$$$$
