Fragment
  Chem3D Core 21.007272619303D

 26 25  0  0  0  0  0  0  0  0999 V2000
    3.1365   -1.3762    1.0541 C   0  0  0  0  0  0  0  0  0  0  0  0
    1.8176   -2.1379    1.0541 C   0  0  0  0  0  0  0  0  0  0  0  0
    0.6594   -1.1490    1.0541 C   0  0  0  0  0  0  0  0  0  0  0  0
   -0.6594   -1.9107    1.0541 C   0  0  0  0  0  0  0  0  0  0  0  0
   -1.8177   -0.9217    1.0541 C   0  0  0  0  0  0  0  0  0  0  0  0
   -1.7445   -0.1153   -0.0904 O   0  0  0  0  0  0  0  0  0  0  0  0
   -2.7590    0.7570   -0.0985 C   0  0  0  0  0  0  0  0  0  0  0  0
   -2.8999    1.7399   -1.2348 C   0  0  0  0  0  0  0  0  0  0  0  0
   -3.5622    0.7578    0.8038 O   0  0  0  0  0  0  0  0  0  0  0  0
   -3.1358   -1.6848    1.0532 C   0  0  0  0  0  0  0  0  0  0  0  0
    3.9829   -2.0989    1.0541 H   0  0  0  0  0  0  0  0  0  0  0  0
    3.1951   -0.7370    0.1448 H   0  0  0  0  0  0  0  0  0  0  0  0
    3.1952   -0.7364    1.9629 H   0  0  0  0  0  0  0  0  0  0  0  0
    1.7590   -2.7771    1.9634 H   0  0  0  0  0  0  0  0  0  0  0  0
    1.7589   -2.7777    0.1453 H   0  0  0  0  0  0  0  0  0  0  0  0
    0.7180   -0.5098    0.1448 H   0  0  0  0  0  0  0  0  0  0  0  0
    0.7181   -0.5091    1.9629 H   0  0  0  0  0  0  0  0  0  0  0  0
   -0.7181   -2.5499    1.9634 H   0  0  0  0  0  0  0  0  0  0  0  0
   -0.7181   -2.5505    0.1453 H   0  0  0  0  0  0  0  0  0  0  0  0
   -1.7590   -0.2819    1.9629 H   0  0  0  0  0  0  0  0  0  0  0  0
   -2.0725    1.5866   -1.9634 H   0  0  0  0  0  0  0  0  0  0  0  0
   -3.8765    1.5799   -1.7442 H   0  0  0  0  0  0  0  0  0  0  0  0
   -2.8545    2.7777   -0.8352 H   0  0  0  0  0  0  0  0  0  0  0  0
   -3.9829   -0.9629    1.0532 H   0  0  0  0  0  0  0  0  0  0  0  0
   -3.1941   -2.3245    1.9621 H   0  0  0  0  0  0  0  0  0  0  0  0
   -3.1934   -2.3242    0.1440 H   0  0  0  0  0  0  0  0  0  0  0  0
  1  2  1  0      
  1 11  1  0      
  1 12  1  0      
  1 13  1  0      
  2  3  1  0      
  2 14  1  0      
  2 15  1  0      
  3  4  1  0      
  3 16  1  0      
  3 17  1  0      
  4  5  1  0      
  4 18  1  0      
  4 19  1  0      
  5  6  1  0      
  5 10  1  0      
  5 20  1  0      
  6  7  1  0      
  7  8  1  0      
  7  9  2  0      
  8 21  1  0      
  8 22  1  0      
  8 23  1  0      
 10 24  1  0      
 10 25  1  0      
 10 26  1  0      
M  END
$$$$
