Fragment
  Chem3D Core 21.007272619323D

104112  0  0  0  0  0  0  0  0999 V2000
  -14.3575   -5.6977   -4.9579 C   0  0  0  0  0  0  0  0  0  0  0  0
  -14.9421   -4.4253   -4.8893 O   0  0  0  0  0  0  0  0  0  0  0  0
  -15.0731   -3.8886   -6.1266 C   0  0  0  0  0  0  0  0  0  0  0  0
  -15.6350   -2.6214   -6.2811 C   0  0  0  0  0  0  0  0  0  0  0  0
  -15.7699   -2.0690   -7.5548 C   0  0  0  0  0  0  0  0  0  0  0  0
  -15.3428   -2.7838   -8.6738 C   0  0  0  0  0  0  0  0  0  0  0  0
  -14.7808   -4.0509   -8.5193 C   0  0  0  0  0  0  0  0  0  0  0  0
  -14.6460   -4.6034   -7.2456 C   0  0  0  0  0  0  0  0  0  0  0  0
  -15.4735   -2.2487   -9.9075 C   0  0  0  0  0  0  0  0  0  0  0  0
  -16.5060   -2.3862  -10.5192 O   0  0  0  0  0  0  0  0  0  0  0  0
  -14.4592   -1.5664  -10.4516 O   0  0  0  0  0  0  0  0  0  0  0  0
  -13.3844   -1.5122   -9.6284 C   0  0  0  0  0  0  0  0  0  0  0  0
  -13.4313   -2.1278   -8.3810 C   0  0  0  0  0  0  0  0  0  0  0  0
  -12.3239   -2.0718   -7.5331 C   0  0  0  0  0  0  0  0  0  0  0  0
  -11.1545   -1.3987   -7.9230 C   0  0  0  0  0  0  0  0  0  0  0  0
  -10.0316   -1.3329   -7.0821 C   0  0  0  0  0  0  0  0  0  0  0  0
   -8.8770   -0.6597   -7.4850 C   0  0  0  0  0  0  0  0  0  0  0  0
   -8.8300   -0.0441   -8.7324 C   0  0  0  0  0  0  0  0  0  0  0  0
   -9.9375   -0.1001   -9.5802 C   0  0  0  0  0  0  0  0  0  0  0  0
  -11.1068   -0.7732   -9.1904 C   0  0  0  0  0  0  0  0  0  0  0  0
  -12.2298   -0.8390  -10.0312 C   0  0  0  0  0  0  0  0  0  0  0  0
   -7.8052   -0.6058   -6.6642 C   0  0  0  0  0  0  0  0  0  0  0  0
   -6.8061   -0.0232   -7.0129 O   0  0  0  0  0  0  0  0  0  0  0  0
   -7.8505   -1.1976   -5.4650 O   0  0  0  0  0  0  0  0  0  0  0  0
   -6.6923   -1.0433   -4.7788 C   0  0  0  0  0  0  0  0  0  0  0  0
   -6.0237   -2.1607   -4.2790 C   0  0  0  0  0  0  0  0  0  0  0  0
   -4.8315   -2.0018   -3.5725 C   0  0  0  0  0  0  0  0  0  0  0  0
   -4.3080   -0.7256   -3.3660 C   0  0  0  0  0  0  0  0  0  0  0  0
   -4.9766    0.3918   -3.8658 C   0  0  0  0  0  0  0  0  0  0  0  0
   -6.1688    0.2329   -4.5723 C   0  0  0  0  0  0  0  0  0  0  0  0
   -3.1533   -0.5718   -2.6817 C   0  0  0  0  0  0  0  0  0  0  0  0
   -2.6999    0.5335   -2.5028 O   0  0  0  0  0  0  0  0  0  0  0  0
   -2.5120   -1.6437   -2.2022 O   0  0  0  0  0  0  0  0  0  0  0  0
   -1.3765   -1.3040   -1.5455 C   0  0  0  0  0  0  0  0  0  0  0  0
   -0.2016   -2.0148   -1.7731 C   0  0  0  0  0  0  0  0  0  0  0  0
    0.9680   -1.6648   -1.0964 C   0  0  0  0  0  0  0  0  0  0  0  0
    0.9769   -0.5982   -0.1827 C   0  0  0  0  0  0  0  0  0  0  0  0
    2.1449   -0.2330    0.5064 C   0  0  0  0  0  0  0  0  0  0  0  0
    2.1366    0.8298    1.4114 C   0  0  0  0  0  0  0  0  0  0  0  0
    0.9618    1.5406    1.6391 C   0  0  0  0  0  0  0  0  0  0  0  0
   -0.2078    1.1905    0.9624 C   0  0  0  0  0  0  0  0  0  0  0  0
   -0.2167    0.1240    0.0487 C   0  0  0  0  0  0  0  0  0  0  0  0
   -1.3847   -0.2413   -0.6405 C   0  0  0  0  0  0  0  0  0  0  0  0
    3.2687    1.1684    2.0662 C   0  0  0  0  0  0  0  0  0  0  0  0
    3.2615    2.0882    2.8493 O   0  0  0  0  0  0  0  0  0  0  0  0
    4.3980    0.4851    1.8473 O   0  0  0  0  0  0  0  0  0  0  0  0
    5.4300    0.9599    2.5860 C   0  0  0  0  0  0  0  0  0  0  0  0
    6.6220    1.3290    1.9628 C   0  0  0  0  0  0  0  0  0  0  0  0
    7.6843    1.8176    2.7233 C   0  0  0  0  0  0  0  0  0  0  0  0
    7.5545    1.9373    4.1069 C   0  0  0  0  0  0  0  0  0  0  0  0
    6.3624    1.5683    4.7301 C   0  0  0  0  0  0  0  0  0  0  0  0
    5.3001    1.0796    3.9696 C   0  0  0  0  0  0  0  0  0  0  0  0
    8.5834    2.4106    4.8434 C   0  0  0  0  0  0  0  0  0  0  0  0
    8.4710    2.5143    6.0417 O   0  0  0  0  0  0  0  0  0  0  0  0
    9.7269    2.7646    4.2456 O   0  0  0  0  0  0  0  0  0  0  0  0
   10.6456    3.2153    5.1338 C   0  0  0  0  0  0  0  0  0  0  0  0
   11.3737    4.3688    4.8573 C   0  0  0  0  0  0  0  0  0  0  0  0
   12.3201    4.8328    5.7724 C   0  0  0  0  0  0  0  0  0  0  0  0
   12.5501    4.1479    6.9768 C   0  0  0  0  0  0  0  0  0  0  0  0
   13.4985    4.6012    7.9082 C   0  0  0  0  0  0  0  0  0  0  0  0
   13.7148    3.9086    9.1008 C   0  0  0  0  0  0  0  0  0  0  0  0
   12.9868    2.7551    9.3774 C   0  0  0  0  0  0  0  0  0  0  0  0
   12.0404    2.2911    8.4622 C   0  0  0  0  0  0  0  0  0  0  0  0
   11.8104    2.9759    7.2578 C   0  0  0  0  0  0  0  0  0  0  0  0
   10.8620    2.5227    6.3263 C   0  0  0  0  0  0  0  0  0  0  0  0
   14.6309    4.3579    9.9863 C   0  0  0  0  0  0  0  0  0  0  0  0
   14.8180    3.7585   11.0183 O   0  0  0  0  0  0  0  0  0  0  0  0
   15.4202    5.6085    9.6863 C   0  0  0  0  0  0  0  0  0  0  0  0
  -14.2602   -6.1178   -3.9318 H   0  0  0  0  0  0  0  0  0  0  0  0
  -14.9991   -6.3675   -5.5732 H   0  0  0  0  0  0  0  0  0  0  0  0
  -13.3494   -5.6181   -5.4231 H   0  0  0  0  0  0  0  0  0  0  0  0
  -15.9717   -2.0576   -5.3986 H   0  0  0  0  0  0  0  0  0  0  0  0
  -16.2131   -1.0696   -7.6768 H   0  0  0  0  0  0  0  0  0  0  0  0
  -14.4440   -4.6146   -9.4018 H   0  0  0  0  0  0  0  0  0  0  0  0
  -14.2028   -5.6028   -7.1237 H   0  0  0  0  0  0  0  0  0  0  0  0
  -14.3409   -2.6585   -8.0633 H   0  0  0  0  0  0  0  0  0  0  0  0
  -12.3675   -2.5604   -6.5485 H   0  0  0  0  0  0  0  0  0  0  0  0
  -10.0622   -1.8173   -6.0949 H   0  0  0  0  0  0  0  0  0  0  0  0
   -7.9202    0.4864   -9.0501 H   0  0  0  0  0  0  0  0  0  0  0  0
   -9.8938    0.3885  -10.5647 H   0  0  0  0  0  0  0  0  0  0  0  0
  -12.1991   -0.3546  -11.0183 H   0  0  0  0  0  0  0  0  0  0  0  0
   -6.4365   -3.1672   -4.4420 H   0  0  0  0  0  0  0  0  0  0  0  0
   -4.3042   -2.8830   -3.1783 H   0  0  0  0  0  0  0  0  0  0  0  0
   -4.5637    1.3983   -3.7029 H   0  0  0  0  0  0  0  0  0  0  0  0
   -6.6962    1.1142   -4.9664 H   0  0  0  0  0  0  0  0  0  0  0  0
   -0.1948   -2.8523   -2.4862 H   0  0  0  0  0  0  0  0  0  0  0  0
    1.8930   -2.2307   -1.2808 H   0  0  0  0  0  0  0  0  0  0  0  0
    3.0766   -0.7908    0.3311 H   0  0  0  0  0  0  0  0  0  0  0  0
    0.9550    2.3781    2.3522 H   0  0  0  0  0  0  0  0  0  0  0  0
   -1.1329    1.7563    1.1468 H   0  0  0  0  0  0  0  0  0  0  0  0
   -2.3165    0.3164   -0.4651 H   0  0  0  0  0  0  0  0  0  0  0  0
    6.7243    1.2347    0.8716 H   0  0  0  0  0  0  0  0  0  0  0  0
    8.6244    2.1086    2.2319 H   0  0  0  0  0  0  0  0  0  0  0  0
    6.2601    1.6628    5.8212 H   0  0  0  0  0  0  0  0  0  0  0  0
    4.3600    0.7885    4.4610 H   0  0  0  0  0  0  0  0  0  0  0  0
   11.2033    4.9148    3.9177 H   0  0  0  0  0  0  0  0  0  0  0  0
   12.8922    5.7450    5.5477 H   0  0  0  0  0  0  0  0  0  0  0  0
   14.0773    5.5121    7.6957 H   0  0  0  0  0  0  0  0  0  0  0  0
   13.1571    2.2091   10.3170 H   0  0  0  0  0  0  0  0  0  0  0  0
   11.4684    1.3788    8.6868 H   0  0  0  0  0  0  0  0  0  0  0  0
   10.2833    1.6117    6.5389 H   0  0  0  0  0  0  0  0  0  0  0  0
   15.1099    6.0155    8.6980 H   0  0  0  0  0  0  0  0  0  0  0  0
   15.2263    6.3675   10.4770 H   0  0  0  0  0  0  0  0  0  0  0  0
   16.5060    5.3651    9.6629 H   0  0  0  0  0  0  0  0  0  0  0  0
  1  2  1  0      
  1 69  1  0      
  1 70  1  0      
  1 71  1  0      
  2  3  1  0      
  3  4  1  0      
  3  8  2  0      
  4  5  2  0      
  4 72  1  0      
  5  6  1  0      
  5 73  1  0      
  6  7  2  0      
  6  9  1  0      
  7  8  1  0      
  7 74  1  0      
  8 75  1  0      
  9 10  2  0      
  9 11  1  0      
 11 12  1  0      
 12 13  1  0      
 12 21  2  0      
 13 14  2  0      
 13 76  1  0      
 14 15  1  0      
 14 77  1  0      
 15 16  2  0      
 15 20  1  0      
 16 17  1  0      
 16 78  1  0      
 17 18  2  0      
 17 22  1  0      
 18 19  1  0      
 18 79  1  0      
 19 20  2  0      
 19 80  1  0      
 20 21  1  0      
 21 81  1  0      
 22 23  2  0      
 22 24  1  0      
 24 25  1  0      
 25 26  1  0      
 25 30  2  0      
 26 27  2  0      
 26 82  1  0      
 27 28  1  0      
 27 83  1  0      
 28 29  2  0      
 28 31  1  0      
 29 30  1  0      
 29 84  1  0      
 30 85  1  0      
 31 32  2  0      
 31 33  1  0      
 33 34  1  0      
 34 35  1  0      
 34 43  2  0      
 35 36  2  0      
 35 86  1  0      
 36 37  1  0      
 36 87  1  0      
 37 38  2  0      
 37 42  1  0      
 38 39  1  0      
 38 88  1  0      
 39 40  2  0      
 39 44  1  0      
 40 41  1  0      
 40 89  1  0      
 41 42  2  0      
 41 90  1  0      
 42 43  1  0      
 43 91  1  0      
 44 45  2  0      
 44 46  1  0      
 46 47  1  0      
 47 48  1  0      
 47 52  2  0      
 48 49  2  0      
 48 92  1  0      
 49 50  1  0      
 49 93  1  0      
 50 51  2  0      
 50 53  1  0      
 51 52  1  0      
 51 94  1  0      
 52 95  1  0      
 53 54  2  0      
 53 55  1  0      
 55 56  1  0      
 56 57  1  0      
 56 65  2  0      
 57 58  2  0      
 57 96  1  0      
 58 59  1  0      
 58 97  1  0      
 59 60  2  0      
 59 64  1  0      
 60 61  1  0      
 60 98  1  0      
 61 62  2  0      
 61 66  1  0      
 62 63  1  0      
 62 99  1  0      
 63 64  2  0      
 63100  1  0      
 64 65  1  0      
 65101  1  0      
 66 67  2  0      
 66 68  1  0      
 68102  1  0      
 68103  1  0      
 68104  1  0      
M  END
$$$$
