Fragment
  Chem3D Core 21.007272619323D

 40 42  0  0  0  0  0  0  0  0999 V2000
   -2.7014   -2.7572    2.5171 C   0  0  0  0  0  0  0  0  0  0  0  0
   -3.2861   -1.4847    2.5857 O   0  0  0  0  0  0  0  0  0  0  0  0
   -3.4170   -0.9480    1.3485 C   0  0  0  0  0  0  0  0  0  0  0  0
   -3.9789    0.3192    1.1939 C   0  0  0  0  0  0  0  0  0  0  0  0
   -4.1138    0.8716   -0.0798 C   0  0  0  0  0  0  0  0  0  0  0  0
   -3.6867    0.1568   -1.1988 C   0  0  0  0  0  0  0  0  0  0  0  0
   -3.1248   -1.1104   -1.0442 C   0  0  0  0  0  0  0  0  0  0  0  0
   -2.9899   -1.6628    0.2295 C   0  0  0  0  0  0  0  0  0  0  0  0
   -3.8174    0.6919   -2.4324 C   0  0  0  0  0  0  0  0  0  0  0  0
   -4.8499    0.5543   -3.0442 O   0  0  0  0  0  0  0  0  0  0  0  0
   -2.8032    1.3742   -2.9765 O   0  0  0  0  0  0  0  0  0  0  0  0
   -1.7283    1.4283   -2.1533 C   0  0  0  0  0  0  0  0  0  0  0  0
   -1.7752    0.8127   -0.9059 C   0  0  0  0  0  0  0  0  0  0  0  0
   -0.6678    0.8687   -0.0580 C   0  0  0  0  0  0  0  0  0  0  0  0
    0.5016    1.5418   -0.4479 C   0  0  0  0  0  0  0  0  0  0  0  0
    1.6245    1.6076    0.3930 C   0  0  0  0  0  0  0  0  0  0  0  0
    2.7791    2.2808   -0.0099 C   0  0  0  0  0  0  0  0  0  0  0  0
    2.8261    2.8964   -1.2573 C   0  0  0  0  0  0  0  0  0  0  0  0
    1.7186    2.8404   -2.1051 C   0  0  0  0  0  0  0  0  0  0  0  0
    0.5493    2.1673   -1.7153 C   0  0  0  0  0  0  0  0  0  0  0  0
   -0.5737    2.1015   -2.5561 C   0  0  0  0  0  0  0  0  0  0  0  0
    3.8508    2.3348    0.8109 C   0  0  0  0  0  0  0  0  0  0  0  0
    4.8499    2.9174    0.4622 O   0  0  0  0  0  0  0  0  0  0  0  0
    3.7998    1.6674    2.1633 C   0  0  0  0  0  0  0  0  0  0  0  0
   -2.6042   -3.1772    3.5432 H   0  0  0  0  0  0  0  0  0  0  0  0
   -3.3430   -3.4270    1.9019 H   0  0  0  0  0  0  0  0  0  0  0  0
   -1.6934   -2.6775    2.0520 H   0  0  0  0  0  0  0  0  0  0  0  0
   -4.3156    0.8829    2.0764 H   0  0  0  0  0  0  0  0  0  0  0  0
   -4.5570    1.8709   -0.2017 H   0  0  0  0  0  0  0  0  0  0  0  0
   -2.7879   -1.6740   -1.9267 H   0  0  0  0  0  0  0  0  0  0  0  0
   -2.5468   -2.6622    0.3514 H   0  0  0  0  0  0  0  0  0  0  0  0
   -2.6849    0.2821   -0.5883 H   0  0  0  0  0  0  0  0  0  0  0  0
   -0.7115    0.3802    0.9266 H   0  0  0  0  0  0  0  0  0  0  0  0
    1.5938    1.1233    1.3801 H   0  0  0  0  0  0  0  0  0  0  0  0
    3.7358    3.4270   -1.5750 H   0  0  0  0  0  0  0  0  0  0  0  0
    1.7622    3.3290   -3.0897 H   0  0  0  0  0  0  0  0  0  0  0  0
   -0.5431    2.5860   -3.5432 H   0  0  0  0  0  0  0  0  0  0  0  0
    2.8057    1.1867    2.3031 H   0  0  0  0  0  0  0  0  0  0  0  0
    4.5974    0.8935    2.2248 H   0  0  0  0  0  0  0  0  0  0  0  0
    3.9585    2.4292    2.9590 H   0  0  0  0  0  0  0  0  0  0  0  0
  1  2  1  0      
  1 25  1  0      
  1 26  1  0      
  1 27  1  0      
  2  3  1  0      
  3  4  1  0      
  3  8  2  0      
  4  5  2  0      
  4 28  1  0      
  5  6  1  0      
  5 29  1  0      
  6  7  2  0      
  6  9  1  0      
  7  8  1  0      
  7 30  1  0      
  8 31  1  0      
  9 10  2  0      
  9 11  1  0      
 11 12  1  0      
 12 13  1  0      
 12 21  2  0      
 13 14  2  0      
 13 32  1  0      
 14 15  1  0      
 14 33  1  0      
 15 16  2  0      
 15 20  1  0      
 16 17  1  0      
 16 34  1  0      
 17 18  2  0      
 17 22  1  0      
 18 19  1  0      
 18 35  1  0      
 19 20  2  0      
 19 36  1  0      
 20 21  1  0      
 21 37  1  0      
 22 23  2  0      
 22 24  1  0      
 24 38  1  0      
 24 39  1  0      
 24 40  1  0      
M  END
$$$$
