Fragment
  Chem3D Core 21.007272619333D

 35 35  0  0  0  0  0  0  0  0999 V2000
   -1.9958   -0.4846   -2.6160 C   0  0  0  0  0  0  0  0  0  0  0  0
   -1.2313   -1.3722   -1.8457 O   0  0  0  0  0  0  0  0  0  0  0  0
   -1.0376   -0.7627   -0.5981 C   0  0  0  0  0  0  0  0  0  0  0  0
   -0.2079   -1.6873    0.2865 C   0  0  0  0  0  0  0  0  0  0  0  0
   -0.1950   -1.1834    1.5948 O   0  0  0  0  0  0  0  0  0  0  0  0
   -1.5742   -0.9764    2.3992 N   0  3  0  0  0  0  0  0  0  0  0  0
   -1.5552   -0.5052    3.6213 O   0  0  0  0  0  0  0  0  0  0  0  0
   -2.7153   -1.2792    1.8315 O   0  5  0  0  0  0  0  0  0  0  0  0
    1.2244   -1.7793   -0.2289 C   0  0  0  0  0  0  0  0  0  0  0  0
    1.2316   -2.4790   -1.4438 O   0  0  0  0  0  0  0  0  0  0  0  0
    0.6693   -3.9859   -1.5165 N   0  3  0  0  0  0  0  0  0  0  0  0
    0.6788   -4.6343   -2.6548 O   0  0  0  0  0  0  0  0  0  0  0  0
    0.2022   -4.5636   -0.4375 O   0  5  0  0  0  0  0  0  0  0  0  0
    1.8083   -0.3898   -0.4496 C   0  0  0  0  0  0  0  0  0  0  0  0
    0.9816    0.3728   -1.3287 O   0  0  0  0  0  0  0  0  0  0  0  0
   -0.3291    0.5707   -0.7985 C   0  0  0  0  0  0  0  0  0  0  0  0
   -0.2224    1.2855    0.5421 C   0  0  0  0  0  0  0  0  0  0  0  0
    0.4289    2.5145    0.3666 O   0  0  0  0  0  0  0  0  0  0  0  0
    0.6810    3.4872    1.6246 N   0  3  0  0  0  0  0  0  0  0  0  0
    1.2902    4.6343    1.4540 O   0  0  0  0  0  0  0  0  0  0  0  0
    0.2768    3.1315    2.8189 O   0  5  0  0  0  0  0  0  0  0  0  0
    1.9078    0.3282    0.8899 C   0  0  0  0  0  0  0  0  0  0  0  0
   -2.1771   -0.9264   -3.6213 H   0  0  0  0  0  0  0  0  0  0  0  0
   -2.9705   -0.3007   -2.1109 H   0  0  0  0  0  0  0  0  0  0  0  0
   -1.4472    0.4773   -2.7271 H   0  0  0  0  0  0  0  0  0  0  0  0
   -2.0164   -0.5766   -0.1021 H   0  0  0  0  0  0  0  0  0  0  0  0
   -0.6618   -2.7034    0.2695 H   0  0  0  0  0  0  0  0  0  0  0  0
    1.8433   -2.3113    0.5279 H   0  0  0  0  0  0  0  0  0  0  0  0
    2.8167   -0.4948   -0.9088 H   0  0  0  0  0  0  0  0  0  0  0  0
   -0.9170    1.1830   -1.5184 H   0  0  0  0  0  0  0  0  0  0  0  0
    0.3593    0.6561    1.2523 H   0  0  0  0  0  0  0  0  0  0  0  0
   -1.2426    1.4615    0.9508 H   0  0  0  0  0  0  0  0  0  0  0  0
    1.5302   -0.3381    1.6975 H   0  0  0  0  0  0  0  0  0  0  0  0
    1.2950    1.2568    0.8589 H   0  0  0  0  0  0  0  0  0  0  0  0
    2.9705    0.5904    1.0920 H   0  0  0  0  0  0  0  0  0  0  0  0
  1  2  1  0      
  1 23  1  0      
  1 24  1  0      
  1 25  1  0      
  3  2  1  0      
  4  3  1  0      
  3 16  1  0      
  3 26  1  0      
  4  5  1  0      
  9  4  1  0      
  4 27  1  0      
  5  6  1  0      
  6  7  2  0      
  6  8  1  0      
  9 10  1  0      
 14  9  1  0      
  9 28  1  0      
 10 11  1  0      
 11 12  2  0      
 11 13  1  0      
 14 15  1  0      
 14 22  1  0      
 14 29  1  0      
 16 15  1  0      
 16 17  1  0      
 16 30  1  0      
 17 18  1  0      
 17 31  1  0      
 17 32  1  0      
 18 19  1  0      
 19 20  2  0      
 19 21  1  0      
 22 33  1  0      
 22 34  1  0      
 22 35  1  0      
M  CHG  6   6   1   8  -1  11   1  13  -1  19   1  21  -1
M  END
$$$$
