Fragment
  Chem3D Core 21.007272619333D

 89 91  0  0  0  0  0  0  0  0999 V2000
   -5.9383   -0.8076   -2.4391 C   0  0  0  0  0  0  0  0  0  0  0  0
   -5.1738   -1.6951   -1.6689 O   0  0  0  0  0  0  0  0  0  0  0  0
   -4.9801   -1.0856   -0.4212 C   0  0  0  0  0  0  0  0  0  0  0  0
   -4.1504   -2.0102    0.4634 C   0  0  0  0  0  0  0  0  0  0  0  0
   -4.1375   -1.5064    1.7716 O   0  0  0  0  0  0  0  0  0  0  0  0
   -5.5167   -1.2994    2.5760 N   0  3  0  0  0  0  0  0  0  0  0  0
   -5.4977   -0.8281    3.7982 O   0  0  0  0  0  0  0  0  0  0  0  0
   -6.6578   -1.6021    2.0084 O   0  5  0  0  0  0  0  0  0  0  0  0
   -2.7181   -2.1022   -0.0520 C   0  0  0  0  0  0  0  0  0  0  0  0
   -2.7109   -2.8020   -1.2669 O   0  0  0  0  0  0  0  0  0  0  0  0
   -3.2732   -4.3088   -1.3397 N   0  3  0  0  0  0  0  0  0  0  0  0
   -3.2637   -4.9572   -2.4779 O   0  0  0  0  0  0  0  0  0  0  0  0
   -3.7402   -4.8865   -0.2607 O   0  5  0  0  0  0  0  0  0  0  0  0
   -2.1342   -0.7127   -0.2727 C   0  0  0  0  0  0  0  0  0  0  0  0
   -2.9609    0.0499   -1.1518 O   0  0  0  0  0  0  0  0  0  0  0  0
   -4.2716    0.2478   -0.6216 C   0  0  0  0  0  0  0  0  0  0  0  0
   -4.1649    0.9625    0.7190 C   0  0  0  0  0  0  0  0  0  0  0  0
   -3.5135    2.1916    0.5435 O   0  0  0  0  0  0  0  0  0  0  0  0
   -3.2615    3.1643    1.8015 N   0  3  0  0  0  0  0  0  0  0  0  0
   -2.6523    4.3114    1.6308 O   0  0  0  0  0  0  0  0  0  0  0  0
   -3.6657    2.8085    2.9958 O   0  5  0  0  0  0  0  0  0  0  0  0
   -2.0426   -0.0518    0.9603 O   0  0  0  0  0  0  0  0  0  0  0  0
   -1.5020    1.2156    0.7016 C   0  0  0  0  0  0  0  0  0  0  0  0
   -0.7172    1.6832    1.9228 C   0  0  0  0  0  0  0  0  0  0  0  0
   -0.3598    3.0282    1.7531 O   0  0  0  0  0  0  0  0  0  0  0  0
    1.1897    3.4650    1.7675 N   0  3  0  0  0  0  0  0  0  0  0  0
    1.7658    3.7987    2.8958 O   0  0  0  0  0  0  0  0  0  0  0  0
    1.8746    3.4866    0.6510 O   0  5  0  0  0  0  0  0  0  0  0  0
    0.5462    0.8478    2.1001 C   0  0  0  0  0  0  0  0  0  0  0  0
    0.1876   -0.4523    2.4830 O   0  0  0  0  0  0  0  0  0  0  0  0
   -0.6616   -0.6977    3.8287 N   0  3  0  0  0  0  0  0  0  0  0  0
   -0.9936   -1.9149    4.1810 O   0  0  0  0  0  0  0  0  0  0  0  0
   -1.0205    0.3200    4.5714 O   0  5  0  0  0  0  0  0  0  0  0  0
    1.3379    0.7849    0.8003 C   0  0  0  0  0  0  0  0  0  0  0  0
    0.5255    0.2893   -0.2637 O   0  0  0  0  0  0  0  0  0  0  0  0
   -0.5975    1.1324   -0.5212 C   0  0  0  0  0  0  0  0  0  0  0  0
   -0.1025    2.5295   -0.8717 C   0  0  0  0  0  0  0  0  0  0  0  0
    0.7312    2.4620   -1.9968 O   0  0  0  0  0  0  0  0  0  0  0  0
    1.4008    3.7993   -2.5930 N   0  3  0  0  0  0  0  0  0  0  0  0
    2.1789    3.7295   -3.6445 O   0  0  0  0  0  0  0  0  0  0  0  0
    1.1675    4.9572   -2.0265 O   0  5  0  0  0  0  0  0  0  0  0  0
    1.7876    2.0721    0.4736 O   0  0  0  0  0  0  0  0  0  0  0  0
    2.5066    1.9582   -0.7246 C   0  0  0  0  0  0  0  0  0  0  0  0
    3.5833    3.0374   -0.7659 C   0  0  0  0  0  0  0  0  0  0  0  0
    4.1580    3.0657   -2.0445 O   0  0  0  0  0  0  0  0  0  0  0  0
    5.7374    2.8151   -2.2309 N   0  3  0  0  0  0  0  0  0  0  0  0
    6.5696    3.8262   -2.1968 O   0  0  0  0  0  0  0  0  0  0  0  0
    6.1903    1.6000   -2.4167 O   0  5  0  0  0  0  0  0  0  0  0  0
    4.6697    2.7505    0.2651 C   0  0  0  0  0  0  0  0  0  0  0  0
    4.1428    2.9347    1.5512 O   0  0  0  0  0  0  0  0  0  0  0  0
    4.1438    1.7225    2.6107 N   0  3  0  0  0  0  0  0  0  0  0  0
    3.6499    1.9011    3.8109 O   0  0  0  0  0  0  0  0  0  0  0  0
    4.6384    0.5575    2.2727 O   0  5  0  0  0  0  0  0  0  0  0  0
    5.1744    1.3194    0.1326 C   0  0  0  0  0  0  0  0  0  0  0  0
    4.0951    0.3906    0.2343 O   0  0  0  0  0  0  0  0  0  0  0  0
    3.1304    0.5708   -0.8026 C   0  0  0  0  0  0  0  0  0  0  0  0
    3.8135    0.4061   -2.1538 C   0  0  0  0  0  0  0  0  0  0  0  0
    4.3908   -0.8690   -2.2340 O   0  0  0  0  0  0  0  0  0  0  0  0
    5.1839   -1.3196   -3.5606 N   0  3  0  0  0  0  0  0  0  0  0  0
    5.7211   -2.5125   -3.6293 O   0  0  0  0  0  0  0  0  0  0  0  0
    5.2922   -0.4934   -4.5714 O   0  5  0  0  0  0  0  0  0  0  0  0
    5.8506    1.1522   -1.2218 C   0  0  0  0  0  0  0  0  0  0  0  0
   -6.1196   -1.2494   -3.4445 H   0  0  0  0  0  0  0  0  0  0  0  0
   -6.9130   -0.6236   -1.9341 H   0  0  0  0  0  0  0  0  0  0  0  0
   -5.3897    0.1544   -2.5502 H   0  0  0  0  0  0  0  0  0  0  0  0
   -5.9589   -0.8995    0.0748 H   0  0  0  0  0  0  0  0  0  0  0  0
   -4.6043   -3.0263    0.4464 H   0  0  0  0  0  0  0  0  0  0  0  0
   -2.0991   -2.6342    0.7047 H   0  0  0  0  0  0  0  0  0  0  0  0
   -1.1258   -0.8178   -0.7320 H   0  0  0  0  0  0  0  0  0  0  0  0
   -4.8595    0.8601   -1.3415 H   0  0  0  0  0  0  0  0  0  0  0  0
   -3.5832    0.3331    1.4291 H   0  0  0  0  0  0  0  0  0  0  0  0
   -5.1851    1.1385    1.1277 H   0  0  0  0  0  0  0  0  0  0  0  0
   -2.3142    1.9484    0.4964 H   0  0  0  0  0  0  0  0  0  0  0  0
   -1.3556    1.5653    2.8268 H   0  0  0  0  0  0  0  0  0  0  0  0
    1.1807    1.3207    2.8828 H   0  0  0  0  0  0  0  0  0  0  0  0
    2.2014    0.0969    0.9408 H   0  0  0  0  0  0  0  0  0  0  0  0
   -1.1794    0.7038   -1.3676 H   0  0  0  0  0  0  0  0  0  0  0  0
    0.4682    2.9468   -0.0121 H   0  0  0  0  0  0  0  0  0  0  0  0
   -0.9731    3.1864   -1.0941 H   0  0  0  0  0  0  0  0  0  0  0  0
    1.8292    2.0953   -1.5970 H   0  0  0  0  0  0  0  0  0  0  0  0
    3.1162    4.0201   -0.5317 H   0  0  0  0  0  0  0  0  0  0  0  0
    5.5202    3.4472    0.0918 H   0  0  0  0  0  0  0  0  0  0  0  0
    5.8976    1.1181    0.9543 H   0  0  0  0  0  0  0  0  0  0  0  0
    2.3271   -0.1896   -0.6792 H   0  0  0  0  0  0  0  0  0  0  0  0
    4.6063    1.1793   -2.2648 H   0  0  0  0  0  0  0  0  0  0  0  0
    3.0620    0.5247   -2.9661 H   0  0  0  0  0  0  0  0  0  0  0  0
    5.8092    2.1147   -1.7791 H   0  0  0  0  0  0  0  0  0  0  0  0
    5.3234    0.3639   -1.8043 H   0  0  0  0  0  0  0  0  0  0  0  0
    6.9130    0.8560   -1.0718 H   0  0  0  0  0  0  0  0  0  0  0  0
  1  2  1  0      
  1 63  1  0      
  1 64  1  0      
  1 65  1  0      
  3  2  1  0      
  4  3  1  0      
  3 16  1  0      
  3 66  1  0      
  4  5  1  0      
  9  4  1  0      
  4 67  1  0      
  5  6  1  0      
  6  7  2  0      
  6  8  1  0      
  9 10  1  0      
 14  9  1  0      
  9 68  1  0      
 10 11  1  0      
 11 12  2  0      
 11 13  1  0      
 14 15  1  0      
 14 22  1  0      
 14 69  1  0      
 16 15  1  0      
 16 17  1  0      
 16 70  1  0      
 17 18  1  0      
 17 71  1  0      
 17 72  1  0      
 18 19  1  0      
 19 20  2  0      
 19 21  1  0      
 23 22  1  0      
 24 23  1  0      
 23 36  1  0      
 23 73  1  0      
 24 25  1  0      
 29 24  1  0      
 24 74  1  0      
 25 26  1  0      
 26 27  2  0      
 26 28  1  0      
 29 30  1  0      
 34 29  1  0      
 29 75  1  0      
 30 31  1  0      
 31 32  2  0      
 31 33  1  0      
 34 35  1  0      
 34 42  1  0      
 34 76  1  0      
 36 35  1  0      
 36 37  1  0      
 36 77  1  0      
 37 38  1  0      
 37 78  1  0      
 37 79  1  0      
 38 39  1  0      
 39 40  2  0      
 39 41  1  0      
 43 42  1  0      
 44 43  1  0      
 43 56  1  0      
 43 80  1  0      
 44 45  1  0      
 49 44  1  0      
 44 81  1  0      
 45 46  1  0      
 46 47  2  0      
 46 48  1  0      
 49 50  1  0      
 54 49  1  0      
 49 82  1  0      
 50 51  1  0      
 51 52  2  0      
 51 53  1  0      
 54 55  1  0      
 54 62  1  0      
 54 83  1  0      
 56 55  1  0      
 56 57  1  0      
 56 84  1  0      
 57 58  1  0      
 57 85  1  0      
 57 86  1  0      
 58 59  1  0      
 59 60  2  0      
 59 61  1  0      
 62 87  1  0      
 62 88  1  0      
 62 89  1  0      
M  CHG  8   6   1   8  -1  11   1  13  -1  19   1  21  -1  26   1  28  -1
M  CHG  8  31   1  33  -1  39   1  41  -1  46   1  48  -1  51   1  53  -1
M  CHG  2  59   1  61  -1
M  END
$$$$
