Fragment
  Chem3D Core 21.007272619293D

 46 45  0  0  0  0  0  0  0  0999 V2000
    5.2295    4.9657   -0.0000 C   0  0  0  0  0  0  0  0  0  0  0  0
    3.9841    4.2468   -0.0000 N   0  0  0  0  0  0  0  0  0  0  0  0
    4.2904    2.8418   -0.0000 C   0  0  0  0  0  0  0  0  0  0  0  0
    2.9960    2.0393   -0.0000 C   0  0  0  0  0  0  0  0  0  0  0  0
    3.3203    0.5512   -0.0000 C   0  0  0  0  0  0  0  0  0  0  0  0
    2.0259   -0.2512   -0.0000 C   0  0  0  0  0  0  0  0  0  0  0  0
    2.3502   -1.7393   -0.0000 C   0  0  0  0  0  0  0  0  0  0  0  0
    1.0558   -2.5418   -0.0000 C   0  0  0  0  0  0  0  0  0  0  0  0
    1.3646   -3.9585   -0.0000 N   0  0  0  0  0  0  0  0  0  0  0  0
    0.3520   -4.8798   -0.0000 C   0  0  0  0  0  0  0  0  0  0  0  0
    0.6092   -6.0601   -0.0000 O   0  0  0  0  0  0  0  0  0  0  0  0
   -1.0856   -4.4209   -0.0000 C   0  0  0  0  0  0  0  0  0  0  0  0
   -1.1333   -2.8987   -0.0000 C   0  0  0  0  0  0  0  0  0  0  0  0
   -2.5842   -2.4355   -0.0000 C   0  0  0  0  0  0  0  0  0  0  0  0
   -2.6319   -0.9133   -0.0000 C   0  0  0  0  0  0  0  0  0  0  0  0
   -4.0695   -0.4544   -0.0000 C   0  0  0  0  0  0  0  0  0  0  0  0
   -4.3267    0.7259   -0.0000 O   0  0  0  0  0  0  0  0  0  0  0  0
   -5.1856   -1.4699   -0.0000 C   0  0  0  0  0  0  0  0  0  0  0  0
    5.0268    6.0601   -0.0000 H   0  0  0  0  0  0  0  0  0  0  0  0
    5.8124    4.6969    0.9093 H   0  0  0  0  0  0  0  0  0  0  0  0
    5.8130    4.6967   -0.9088 H   0  0  0  0  0  0  0  0  0  0  0  0
    3.4570    4.4799    0.8416 H   0  0  0  0  0  0  0  0  0  0  0  0
    4.8815    2.5914   -0.9093 H   0  0  0  0  0  0  0  0  0  0  0  0
    4.8820    2.5912    0.9088 H   0  0  0  0  0  0  0  0  0  0  0  0
    2.4049    2.2896    0.9093 H   0  0  0  0  0  0  0  0  0  0  0  0
    2.4043    2.2899   -0.9088 H   0  0  0  0  0  0  0  0  0  0  0  0
    3.9114    0.3009   -0.9093 H   0  0  0  0  0  0  0  0  0  0  0  0
    3.9120    0.3007    0.9088 H   0  0  0  0  0  0  0  0  0  0  0  0
    1.4348   -0.0009    0.9093 H   0  0  0  0  0  0  0  0  0  0  0  0
    1.4342   -0.0007   -0.9088 H   0  0  0  0  0  0  0  0  0  0  0  0
    2.9413   -1.9896   -0.9093 H   0  0  0  0  0  0  0  0  0  0  0  0
    2.9419   -1.9899    0.9088 H   0  0  0  0  0  0  0  0  0  0  0  0
    0.4647   -2.2914    0.9093 H   0  0  0  0  0  0  0  0  0  0  0  0
    0.4641   -2.2912   -0.9088 H   0  0  0  0  0  0  0  0  0  0  0  0
    2.3287   -4.2662   -0.0000 H   0  0  0  0  0  0  0  0  0  0  0  0
   -1.5979   -4.8076   -0.9093 H   0  0  0  0  0  0  0  0  0  0  0  0
   -1.5984   -4.8080    0.9088 H   0  0  0  0  0  0  0  0  0  0  0  0
   -0.6210   -2.5120    0.9093 H   0  0  0  0  0  0  0  0  0  0  0  0
   -0.6205   -2.5116   -0.9088 H   0  0  0  0  0  0  0  0  0  0  0  0
   -3.0965   -2.8222   -0.9093 H   0  0  0  0  0  0  0  0  0  0  0  0
   -3.0970   -2.8226    0.9088 H   0  0  0  0  0  0  0  0  0  0  0  0
   -2.1196   -0.5266    0.9093 H   0  0  0  0  0  0  0  0  0  0  0  0
   -2.1191   -0.5262   -0.9088 H   0  0  0  0  0  0  0  0  0  0  0  0
   -4.7544   -2.4960   -0.0000 H   0  0  0  0  0  0  0  0  0  0  0  0
   -5.8124   -1.3315    0.9093 H   0  0  0  0  0  0  0  0  0  0  0  0
   -5.8130   -1.3313   -0.9088 H   0  0  0  0  0  0  0  0  0  0  0  0
  1  2  1  0      
  1 19  1  0      
  1 20  1  0      
  1 21  1  0      
  2  3  1  0      
  2 22  1  0      
  3  4  1  0      
  3 23  1  0      
  3 24  1  0      
  4  5  1  0      
  4 25  1  0      
  4 26  1  0      
  5  6  1  0      
  5 27  1  0      
  5 28  1  0      
  6  7  1  0      
  6 29  1  0      
  6 30  1  0      
  7  8  1  0      
  7 31  1  0      
  7 32  1  0      
  8  9  1  0      
  8 33  1  0      
  8 34  1  0      
  9 10  1  0      
  9 35  1  0      
 10 11  2  0      
 10 12  1  0      
 12 13  1  0      
 12 36  1  0      
 12 37  1  0      
 13 14  1  0      
 13 38  1  0      
 13 39  1  0      
 14 15  1  0      
 14 40  1  0      
 14 41  1  0      
 15 16  1  0      
 15 42  1  0      
 15 43  1  0      
 16 17  2  0      
 16 18  1  0      
 18 44  1  0      
 18 45  1  0      
 18 46  1  0      
M  END
$$$$
