Fragment
  Chem3D Core 21.007272619293D

122121  0  0  0  0  0  0  0  0999 V2000
   12.9930   12.0290    0.0000 C   0  0  0  0  0  0  0  0  0  0  0  0
   11.7476   11.3101    0.0000 N   0  0  0  0  0  0  0  0  0  0  0  0
   12.0538    9.9051    0.0000 C   0  0  0  0  0  0  0  0  0  0  0  0
   10.7594    9.1026    0.0000 C   0  0  0  0  0  0  0  0  0  0  0  0
   11.0838    7.6145    0.0000 C   0  0  0  0  0  0  0  0  0  0  0  0
    9.7893    6.8121    0.0000 C   0  0  0  0  0  0  0  0  0  0  0  0
   10.1137    5.3240    0.0000 C   0  0  0  0  0  0  0  0  0  0  0  0
    8.8192    4.5215    0.0000 C   0  0  0  0  0  0  0  0  0  0  0  0
    9.1280    3.1048    0.0000 N   0  0  0  0  0  0  0  0  0  0  0  0
    8.1154    2.1835    0.0000 C   0  0  0  0  0  0  0  0  0  0  0  0
    8.3727    1.0032    0.0000 O   0  0  0  0  0  0  0  0  0  0  0  0
    6.6779    2.6424    0.0000 C   0  0  0  0  0  0  0  0  0  0  0  0
    6.6301    4.1646    0.0000 C   0  0  0  0  0  0  0  0  0  0  0  0
    5.1793    4.6278    0.0000 C   0  0  0  0  0  0  0  0  0  0  0  0
    5.1315    6.1500    0.0000 C   0  0  0  0  0  0  0  0  0  0  0  0
    3.6940    6.6089    0.0000 C   0  0  0  0  0  0  0  0  0  0  0  0
    3.4367    7.7892    0.0000 O   0  0  0  0  0  0  0  0  0  0  0  0
    2.6814    5.6876    0.0000 N   0  0  0  0  0  0  0  0  0  0  0  0
    1.3001    6.1285    0.0000 C   0  0  0  0  0  0  0  0  0  0  0  0
    0.3792    4.9155    0.0000 C   0  0  0  0  0  0  0  0  0  0  0  0
   -1.0717    5.3786    0.0000 C   0  0  0  0  0  0  0  0  0  0  0  0
   -1.9926    4.1656    0.0000 C   0  0  0  0  0  0  0  0  0  0  0  0
   -3.4435    4.6287    0.0000 C   0  0  0  0  0  0  0  0  0  0  0  0
   -4.3643    3.4156    0.0000 C   0  0  0  0  0  0  0  0  0  0  0  0
   -5.7457    3.8566    0.0000 N   0  0  0  0  0  0  0  0  0  0  0  0
   -6.7583    2.9353    0.0000 C   0  0  0  0  0  0  0  0  0  0  0  0
   -7.9091    3.3026    0.0000 O   0  0  0  0  0  0  0  0  0  0  0  0
   -6.4369    1.4609    0.0000 C   0  0  0  0  0  0  0  0  0  0  0  0
   -4.9259    1.2699    0.0000 C   0  0  0  0  0  0  0  0  0  0  0  0
   -4.6016   -0.2181    0.0000 C   0  0  0  0  0  0  0  0  0  0  0  0
   -3.0906   -0.4091    0.0000 C   0  0  0  0  0  0  0  0  0  0  0  0
   -2.7692   -1.8835    0.0000 C   0  0  0  0  0  0  0  0  0  0  0  0
   -1.6184   -2.2508    0.0000 O   0  0  0  0  0  0  0  0  0  0  0  0
   -3.7819   -2.8048    0.0000 N   0  0  0  0  0  0  0  0  0  0  0  0
   -3.4730   -4.2215    0.0000 C   0  0  0  0  0  0  0  0  0  0  0  0
   -4.7675   -5.0240    0.0000 C   0  0  0  0  0  0  0  0  0  0  0  0
   -4.4431   -6.5121    0.0000 C   0  0  0  0  0  0  0  0  0  0  0  0
   -5.7376   -7.3145    0.0000 C   0  0  0  0  0  0  0  0  0  0  0  0
   -5.4132   -8.8026    0.0000 C   0  0  0  0  0  0  0  0  0  0  0  0
   -6.7077   -9.6051    0.0000 C   0  0  0  0  0  0  0  0  0  0  0  0
   -6.3989  -11.0218    0.0000 N   0  0  0  0  0  0  0  0  0  0  0  0
   -7.4115  -11.9431    0.0000 C   0  0  0  0  0  0  0  0  0  0  0  0
   -7.1542  -13.1234    0.0000 O   0  0  0  0  0  0  0  0  0  0  0  0
   -8.8490  -11.4842    0.0000 C   0  0  0  0  0  0  0  0  0  0  0  0
   -8.8967   -9.9619    0.0000 C   0  0  0  0  0  0  0  0  0  0  0  0
  -10.3476   -9.4988    0.0000 C   0  0  0  0  0  0  0  0  0  0  0  0
  -10.3954   -7.9766    0.0000 C   0  0  0  0  0  0  0  0  0  0  0  0
  -11.8329   -7.5177    0.0000 C   0  0  0  0  0  0  0  0  0  0  0  0
  -12.0902   -6.3374    0.0000 O   0  0  0  0  0  0  0  0  0  0  0  0
  -12.9491   -8.5332    0.0000 C   0  0  0  0  0  0  0  0  0  0  0  0
   12.7902   13.1234    0.0000 H   0  0  0  0  0  0  0  0  0  0  0  0
   13.5759   11.7602    0.9093 H   0  0  0  0  0  0  0  0  0  0  0  0
   13.5765   11.7600   -0.9088 H   0  0  0  0  0  0  0  0  0  0  0  0
   11.2205   11.5431    0.8416 H   0  0  0  0  0  0  0  0  0  0  0  0
   12.6449    9.6547   -0.9093 H   0  0  0  0  0  0  0  0  0  0  0  0
   12.6455    9.6545    0.9088 H   0  0  0  0  0  0  0  0  0  0  0  0
   10.1683    9.3529    0.9093 H   0  0  0  0  0  0  0  0  0  0  0  0
   10.1678    9.3532   -0.9088 H   0  0  0  0  0  0  0  0  0  0  0  0
   11.6748    7.3642   -0.9093 H   0  0  0  0  0  0  0  0  0  0  0  0
   11.6754    7.3640    0.9088 H   0  0  0  0  0  0  0  0  0  0  0  0
    9.1983    7.0624    0.9093 H   0  0  0  0  0  0  0  0  0  0  0  0
    9.1977    7.0626   -0.9088 H   0  0  0  0  0  0  0  0  0  0  0  0
   10.7047    5.0737   -0.9093 H   0  0  0  0  0  0  0  0  0  0  0  0
   10.7053    5.0734    0.9088 H   0  0  0  0  0  0  0  0  0  0  0  0
    8.2282    4.7719    0.9093 H   0  0  0  0  0  0  0  0  0  0  0  0
    8.2276    4.7721   -0.9088 H   0  0  0  0  0  0  0  0  0  0  0  0
   10.0921    2.7970    0.0000 H   0  0  0  0  0  0  0  0  0  0  0  0
    6.1656    2.2557   -0.9093 H   0  0  0  0  0  0  0  0  0  0  0  0
    6.1651    2.2553    0.9088 H   0  0  0  0  0  0  0  0  0  0  0  0
    7.1425    4.5513    0.9093 H   0  0  0  0  0  0  0  0  0  0  0  0
    7.1430    4.5517   -0.9088 H   0  0  0  0  0  0  0  0  0  0  0  0
    4.6670    4.2411   -0.9093 H   0  0  0  0  0  0  0  0  0  0  0  0
    4.6664    4.2407    0.9088 H   0  0  0  0  0  0  0  0  0  0  0  0
    5.6439    6.5367    0.9093 H   0  0  0  0  0  0  0  0  0  0  0  0
    5.6444    6.5371   -0.9088 H   0  0  0  0  0  0  0  0  0  0  0  0
    2.8969    4.6988    0.0000 H   0  0  0  0  0  0  0  0  0  0  0  0
    1.1065    6.7406    0.9093 H   0  0  0  0  0  0  0  0  0  0  0  0
    1.1063    6.7412   -0.9088 H   0  0  0  0  0  0  0  0  0  0  0  0
    0.5727    4.3035   -0.9093 H   0  0  0  0  0  0  0  0  0  0  0  0
    0.5729    4.3029    0.9088 H   0  0  0  0  0  0  0  0  0  0  0  0
   -1.2652    5.9906    0.9093 H   0  0  0  0  0  0  0  0  0  0  0  0
   -1.2654    5.9912   -0.9088 H   0  0  0  0  0  0  0  0  0  0  0  0
   -1.7991    3.5535   -0.9093 H   0  0  0  0  0  0  0  0  0  0  0  0
   -1.7989    3.5529    0.9088 H   0  0  0  0  0  0  0  0  0  0  0  0
   -3.6370    5.2407    0.9093 H   0  0  0  0  0  0  0  0  0  0  0  0
   -3.6372    5.2413   -0.9088 H   0  0  0  0  0  0  0  0  0  0  0  0
   -4.1708    2.8036   -0.9093 H   0  0  0  0  0  0  0  0  0  0  0  0
   -4.1706    2.8030    0.9088 H   0  0  0  0  0  0  0  0  0  0  0  0
   -5.9612    4.8454    0.0000 H   0  0  0  0  0  0  0  0  0  0  0  0
   -6.8702    0.9873    0.9093 H   0  0  0  0  0  0  0  0  0  0  0  0
   -6.8706    0.9868   -0.9088 H   0  0  0  0  0  0  0  0  0  0  0  0
   -4.4927    1.7435   -0.9093 H   0  0  0  0  0  0  0  0  0  0  0  0
   -4.4922    1.7440    0.9088 H   0  0  0  0  0  0  0  0  0  0  0  0
   -5.0349   -0.6917    0.9093 H   0  0  0  0  0  0  0  0  0  0  0  0
   -5.0353   -0.6922   -0.9088 H   0  0  0  0  0  0  0  0  0  0  0  0
   -2.6573    0.0645   -0.9093 H   0  0  0  0  0  0  0  0  0  0  0  0
   -2.6569    0.0650    0.9088 H   0  0  0  0  0  0  0  0  0  0  0  0
   -4.7459   -2.4970    0.0000 H   0  0  0  0  0  0  0  0  0  0  0  0
   -2.8820   -4.4718   -0.9093 H   0  0  0  0  0  0  0  0  0  0  0  0
   -2.8814   -4.4721    0.9088 H   0  0  0  0  0  0  0  0  0  0  0  0
   -5.3585   -4.7737    0.9093 H   0  0  0  0  0  0  0  0  0  0  0  0
   -5.3591   -4.7734   -0.9088 H   0  0  0  0  0  0  0  0  0  0  0  0
   -3.8521   -6.7624   -0.9093 H   0  0  0  0  0  0  0  0  0  0  0  0
   -3.8515   -6.7626    0.9088 H   0  0  0  0  0  0  0  0  0  0  0  0
   -6.3286   -7.0642    0.9093 H   0  0  0  0  0  0  0  0  0  0  0  0
   -6.3292   -7.0639   -0.9088 H   0  0  0  0  0  0  0  0  0  0  0  0
   -4.8222   -9.0529   -0.9093 H   0  0  0  0  0  0  0  0  0  0  0  0
   -4.8216   -9.0532    0.9088 H   0  0  0  0  0  0  0  0  0  0  0  0
   -7.2987   -9.3547    0.9093 H   0  0  0  0  0  0  0  0  0  0  0  0
   -7.2993   -9.3545   -0.9088 H   0  0  0  0  0  0  0  0  0  0  0  0
   -5.4348  -11.3295    0.0000 H   0  0  0  0  0  0  0  0  0  0  0  0
   -9.3613  -11.8709   -0.9093 H   0  0  0  0  0  0  0  0  0  0  0  0
   -9.3618  -11.8713    0.9088 H   0  0  0  0  0  0  0  0  0  0  0  0
   -8.3844   -9.5752    0.9093 H   0  0  0  0  0  0  0  0  0  0  0  0
   -8.3839   -9.5749   -0.9088 H   0  0  0  0  0  0  0  0  0  0  0  0
  -10.8599   -9.8855   -0.9093 H   0  0  0  0  0  0  0  0  0  0  0  0
  -10.8604   -9.8859    0.9088 H   0  0  0  0  0  0  0  0  0  0  0  0
   -9.8830   -7.5899    0.9093 H   0  0  0  0  0  0  0  0  0  0  0  0
   -9.8825   -7.5895   -0.9088 H   0  0  0  0  0  0  0  0  0  0  0  0
  -12.5178   -9.5593    0.0000 H   0  0  0  0  0  0  0  0  0  0  0  0
  -13.5758   -8.3948    0.9093 H   0  0  0  0  0  0  0  0  0  0  0  0
  -13.5765   -8.3946   -0.9088 H   0  0  0  0  0  0  0  0  0  0  0  0
  1  2  1  0      
  1 51  1  0      
  1 52  1  0      
  1 53  1  0      
  2  3  1  0      
  2 54  1  0      
  3  4  1  0      
  3 55  1  0      
  3 56  1  0      
  4  5  1  0      
  4 57  1  0      
  4 58  1  0      
  5  6  1  0      
  5 59  1  0      
  5 60  1  0      
  6  7  1  0      
  6 61  1  0      
  6 62  1  0      
  7  8  1  0      
  7 63  1  0      
  7 64  1  0      
  8  9  1  0      
  8 65  1  0      
  8 66  1  0      
  9 10  1  0      
  9 67  1  0      
 10 11  2  0      
 10 12  1  0      
 12 13  1  0      
 12 68  1  0      
 12 69  1  0      
 13 14  1  0      
 13 70  1  0      
 13 71  1  0      
 14 15  1  0      
 14 72  1  0      
 14 73  1  0      
 15 16  1  0      
 15 74  1  0      
 15 75  1  0      
 16 17  2  0      
 16 18  1  0      
 18 19  1  0      
 18 76  1  0      
 19 20  1  0      
 19 77  1  0      
 19 78  1  0      
 20 21  1  0      
 20 79  1  0      
 20 80  1  0      
 21 22  1  0      
 21 81  1  0      
 21 82  1  0      
 22 23  1  0      
 22 83  1  0      
 22 84  1  0      
 23 24  1  0      
 23 85  1  0      
 23 86  1  0      
 24 25  1  0      
 24 87  1  0      
 24 88  1  0      
 25 26  1  0      
 25 89  1  0      
 26 27  2  0      
 26 28  1  0      
 28 29  1  0      
 28 90  1  0      
 28 91  1  0      
 29 30  1  0      
 29 92  1  0      
 29 93  1  0      
 30 31  1  0      
 30 94  1  0      
 30 95  1  0      
 31 32  1  0      
 31 96  1  0      
 31 97  1  0      
 32 33  2  0      
 32 34  1  0      
 34 35  1  0      
 34 98  1  0      
 35 36  1  0      
 35 99  1  0      
 35100  1  0      
 36 37  1  0      
 36101  1  0      
 36102  1  0      
 37 38  1  0      
 37103  1  0      
 37104  1  0      
 38 39  1  0      
 38105  1  0      
 38106  1  0      
 39 40  1  0      
 39107  1  0      
 39108  1  0      
 40 41  1  0      
 40109  1  0      
 40110  1  0      
 41 42  1  0      
 41111  1  0      
 42 43  2  0      
 42 44  1  0      
 44 45  1  0      
 44112  1  0      
 44113  1  0      
 45 46  1  0      
 45114  1  0      
 45115  1  0      
 46 47  1  0      
 46116  1  0      
 46117  1  0      
 47 48  1  0      
 47118  1  0      
 47119  1  0      
 48 49  2  0      
 48 50  1  0      
 50120  1  0      
 50121  1  0      
 50122  1  0      
M  END
$$$$
