Fragment
  Chem3D Core 21.007272619293D

 92 97  0  0  0  0  0  0  0  0999 V2000
   -5.5770    3.4276  -12.4183 C   0  0  0  0  0  0  0  0  0  0  0  0
   -5.6952    2.7854  -11.1776 O   0  0  0  0  0  0  0  0  0  0  0  0
   -4.4781    2.9719  -10.5072 C   0  0  0  0  0  0  0  0  0  0  0  0
   -4.5395    2.2950   -9.1442 C   0  0  0  0  0  0  0  0  0  0  0  0
   -3.3224    2.4814   -8.4738 O   0  0  0  0  0  0  0  0  0  0  0  0
   -3.3676    1.8896   -7.2747 C   0  0  0  0  0  0  0  0  0  0  0  0
   -4.3668    1.3069   -6.9260 O   0  0  0  0  0  0  0  0  0  0  0  0
   -2.2959    1.9436   -6.4539 C   0  0  0  0  0  0  0  0  0  0  0  0
   -2.3428    1.3280   -5.2065 C   0  0  0  0  0  0  0  0  0  0  0  0
   -1.2354    1.3839   -4.3586 C   0  0  0  0  0  0  0  0  0  0  0  0
   -0.0660    2.0571   -4.7485 C   0  0  0  0  0  0  0  0  0  0  0  0
    1.0569    2.1229   -3.9076 C   0  0  0  0  0  0  0  0  0  0  0  0
    2.2115    2.7961   -4.3105 C   0  0  0  0  0  0  0  0  0  0  0  0
    2.2585    3.4117   -5.5579 C   0  0  0  0  0  0  0  0  0  0  0  0
    1.1510    3.3557   -6.4057 C   0  0  0  0  0  0  0  0  0  0  0  0
   -0.0183    2.6826   -6.0159 C   0  0  0  0  0  0  0  0  0  0  0  0
   -1.1413    2.6168   -6.8567 C   0  0  0  0  0  0  0  0  0  0  0  0
    3.2832    2.8500   -3.4897 C   0  0  0  0  0  0  0  0  0  0  0  0
    4.2823    3.4326   -3.8384 O   0  0  0  0  0  0  0  0  0  0  0  0
    3.2379    2.2582   -2.2906 O   0  0  0  0  0  0  0  0  0  0  0  0
    4.4551    2.4446   -1.6202 C   0  0  0  0  0  0  0  0  0  0  0  0
    4.3936    1.7678   -0.2572 C   0  0  0  0  0  0  0  0  0  0  0  0
    5.6108    1.9542    0.4132 O   0  0  0  0  0  0  0  0  0  0  0  0
    5.5655    1.3624    1.6123 C   0  0  0  0  0  0  0  0  0  0  0  0
    6.5238    1.4106    2.3463 O   0  0  0  0  0  0  0  0  0  0  0  0
    4.4481    0.7108    2.0023 C   0  0  0  0  0  0  0  0  0  0  0  0
    3.9464    0.8970    3.2872 C   0  0  0  0  0  0  0  0  0  0  0  0
    2.7919    0.2237    3.6899 C   0  0  0  0  0  0  0  0  0  0  0  0
    2.1242   -0.6452    2.8113 C   0  0  0  0  0  0  0  0  0  0  0  0
    0.9617   -1.3303    3.2005 C   0  0  0  0  0  0  0  0  0  0  0  0
    0.3101   -2.1903    2.3149 C   0  0  0  0  0  0  0  0  0  0  0  0
    0.8117   -2.3765    1.0300 C   0  0  0  0  0  0  0  0  0  0  0  0
    1.9662   -1.7032    0.6274 C   0  0  0  0  0  0  0  0  0  0  0  0
    2.6339   -0.8344    1.5059 C   0  0  0  0  0  0  0  0  0  0  0  0
    3.7965   -0.1493    1.1168 C   0  0  0  0  0  0  0  0  0  0  0  0
   -0.8073   -2.8419    2.7049 C   0  0  0  0  0  0  0  0  0  0  0  0
   -1.3711   -3.5861    1.9384 O   0  0  0  0  0  0  0  0  0  0  0  0
   -1.2895   -2.6628    3.9401 O   0  0  0  0  0  0  0  0  0  0  0  0
   -2.4462   -3.4349    4.1174 C   0  0  0  0  0  0  0  0  0  0  0  0
   -2.9871   -3.2243    5.5255 C   0  0  0  0  0  0  0  0  0  0  0  0
   -4.1438   -3.9964    5.7028 O   0  0  0  0  0  0  0  0  0  0  0  0
   -4.6260   -3.8174    6.9380 C   0  0  0  0  0  0  0  0  0  0  0  0
   -5.6251   -4.3999    7.2867 O   0  0  0  0  0  0  0  0  0  0  0  0
   -3.9954   -2.9850    7.7952 C   0  0  0  0  0  0  0  0  0  0  0  0
   -3.7787   -3.3766    9.1131 C   0  0  0  0  0  0  0  0  0  0  0  0
   -3.1272   -2.5164    9.9986 C   0  0  0  0  0  0  0  0  0  0  0  0
   -2.6839   -1.2524    9.5762 C   0  0  0  0  0  0  0  0  0  0  0  0
   -2.0269   -0.3750   10.4541 C   0  0  0  0  0  0  0  0  0  0  0  0
   -1.5926    0.8780   10.0181 C   0  0  0  0  0  0  0  0  0  0  0  0
   -1.8093    1.2697    8.7003 C   0  0  0  0  0  0  0  0  0  0  0  0
   -2.4608    0.4094    7.8149 C   0  0  0  0  0  0  0  0  0  0  0  0
   -2.9041   -0.8545    8.2372 C   0  0  0  0  0  0  0  0  0  0  0  0
   -3.5611   -1.7320    7.3593 C   0  0  0  0  0  0  0  0  0  0  0  0
   -0.9621    1.7104   10.8753 C   0  0  0  0  0  0  0  0  0  0  0  0
   -0.5863    2.7946   10.4980 O   0  0  0  0  0  0  0  0  0  0  0  0
   -0.7272    1.2856   12.3041 C   0  0  0  0  0  0  0  0  0  0  0  0
   -6.5238    3.3069  -12.9908 H   0  0  0  0  0  0  0  0  0  0  0  0
   -5.3768    4.5105  -12.2573 H   0  0  0  0  0  0  0  0  0  0  0  0
   -4.7369    2.9752  -12.9913 H   0  0  0  0  0  0  0  0  0  0  0  0
   -3.6532    2.5249  -11.1059 H   0  0  0  0  0  0  0  0  0  0  0  0
   -4.2920    4.0609  -10.3723 H   0  0  0  0  0  0  0  0  0  0  0  0
   -5.3645    2.7419   -8.5455 H   0  0  0  0  0  0  0  0  0  0  0  0
   -4.7256    1.2060   -9.2791 H   0  0  0  0  0  0  0  0  0  0  0  0
   -3.2525    0.7973   -4.8889 H   0  0  0  0  0  0  0  0  0  0  0  0
   -1.2791    0.8954   -3.3740 H   0  0  0  0  0  0  0  0  0  0  0  0
    1.0262    1.6385   -2.9205 H   0  0  0  0  0  0  0  0  0  0  0  0
    3.1682    3.9422   -5.8756 H   0  0  0  0  0  0  0  0  0  0  0  0
    1.1946    3.8443   -7.3903 H   0  0  0  0  0  0  0  0  0  0  0  0
   -1.1107    3.1012   -7.8438 H   0  0  0  0  0  0  0  0  0  0  0  0
    5.2800    1.9977   -2.2189 H   0  0  0  0  0  0  0  0  0  0  0  0
    4.6412    3.5336   -1.4853 H   0  0  0  0  0  0  0  0  0  0  0  0
    3.5687    2.2147    0.3415 H   0  0  0  0  0  0  0  0  0  0  0  0
    4.2075    0.6788   -0.3920 H   0  0  0  0  0  0  0  0  0  0  0  0
    4.4596    1.5748    3.9852 H   0  0  0  0  0  0  0  0  0  0  0  0
    2.4008    0.3752    4.7067 H   0  0  0  0  0  0  0  0  0  0  0  0
    0.5601   -1.1875    4.2146 H   0  0  0  0  0  0  0  0  0  0  0  0
    0.2984   -3.0542    0.3320 H   0  0  0  0  0  0  0  0  0  0  0  0
    2.3575   -1.8548   -0.3894 H   0  0  0  0  0  0  0  0  0  0  0  0
    4.1982   -0.2920    0.1027 H   0  0  0  0  0  0  0  0  0  0  0  0
   -3.2155   -3.1256    3.3749 H   0  0  0  0  0  0  0  0  0  0  0  0
   -2.2000   -4.5105    3.9717 H   0  0  0  0  0  0  0  0  0  0  0  0
   -2.2178   -3.5336    6.2679 H   0  0  0  0  0  0  0  0  0  0  0  0
   -3.2333   -2.1487    5.6711 H   0  0  0  0  0  0  0  0  0  0  0  0
   -4.1207   -4.3640    9.4568 H   0  0  0  0  0  0  0  0  0  0  0  0
   -2.9592   -2.8320   11.0388 H   0  0  0  0  0  0  0  0  0  0  0  0
   -1.8526   -0.6784   11.4970 H   0  0  0  0  0  0  0  0  0  0  0  0
   -1.4672    2.2570    8.3565 H   0  0  0  0  0  0  0  0  0  0  0  0
   -2.6290    0.7250    6.7746 H   0  0  0  0  0  0  0  0  0  0  0  0
   -3.7355   -1.4285    6.3165 H   0  0  0  0  0  0  0  0  0  0  0  0
   -1.1406    0.2642   12.4608 H   0  0  0  0  0  0  0  0  0  0  0  0
    0.3658    1.2791   12.5138 H   0  0  0  0  0  0  0  0  0  0  0  0
   -1.2335    1.9999   12.9913 H   0  0  0  0  0  0  0  0  0  0  0  0
  1  2  1  0      
  1 57  1  0      
  1 58  1  0      
  1 59  1  0      
  2  3  1  0      
  3  4  1  0      
  3 60  1  0      
  3 61  1  0      
  4  5  1  0      
  4 62  1  0      
  4 63  1  0      
  5  6  1  0      
  6  7  2  0      
  6  8  1  0      
  8  9  1  0      
  8 17  2  0      
  9 10  2  0      
  9 64  1  0      
 10 11  1  0      
 10 65  1  0      
 11 12  2  0      
 11 16  1  0      
 12 13  1  0      
 12 66  1  0      
 13 14  2  0      
 13 18  1  0      
 14 15  1  0      
 14 67  1  0      
 15 16  2  0      
 15 68  1  0      
 16 17  1  0      
 17 69  1  0      
 18 19  2  0      
 18 20  1  0      
 20 21  1  0      
 21 22  1  0      
 21 70  1  0      
 21 71  1  0      
 22 23  1  0      
 22 72  1  0      
 22 73  1  0      
 23 24  1  0      
 24 25  2  0      
 24 26  1  0      
 26 27  1  0      
 26 35  2  0      
 27 28  2  0      
 27 74  1  0      
 28 29  1  0      
 28 75  1  0      
 29 30  2  0      
 29 34  1  0      
 30 31  1  0      
 30 76  1  0      
 31 32  2  0      
 31 36  1  0      
 32 33  1  0      
 32 77  1  0      
 33 34  2  0      
 33 78  1  0      
 34 35  1  0      
 35 79  1  0      
 36 37  2  0      
 36 38  1  0      
 38 39  1  0      
 39 40  1  0      
 39 80  1  0      
 39 81  1  0      
 40 41  1  0      
 40 82  1  0      
 40 83  1  0      
 41 42  1  0      
 42 43  2  0      
 42 44  1  0      
 44 45  1  0      
 44 53  2  0      
 45 46  2  0      
 45 84  1  0      
 46 47  1  0      
 46 85  1  0      
 47 48  2  0      
 47 52  1  0      
 48 49  1  0      
 48 86  1  0      
 49 50  2  0      
 49 54  1  0      
 50 51  1  0      
 50 87  1  0      
 51 52  2  0      
 51 88  1  0      
 52 53  1  0      
 53 89  1  0      
 54 55  2  0      
 54 56  1  0      
 56 90  1  0      
 56 91  1  0      
 56 92  1  0      
M  END
$$$$
