Fragment
  Chem3D Core 21.007272619323D

143148  0  0  0  0  0  0  0  0999 V2000
   -2.7302    7.6195   10.5955 C   0  0  0  0  0  0  0  0  0  0  0  0
   -3.4877    7.4128    9.4339 O   0  0  0  0  0  0  0  0  0  0  0  0
   -2.5907    7.0237    8.4291 C   0  0  0  0  0  0  0  0  0  0  0  0
   -3.3529    6.7818    7.1330 C   0  0  0  0  0  0  0  0  0  0  0  0
   -2.3785    6.3591    6.0415 C   0  0  0  0  0  0  0  0  0  0  0  0
   -3.1408    6.1172    4.7453 C   0  0  0  0  0  0  0  0  0  0  0  0
   -2.2438    5.7281    3.7405 O   0  0  0  0  0  0  0  0  0  0  0  0
   -2.9054    5.5134    2.5975 C   0  0  0  0  0  0  0  0  0  0  0  0
   -2.3050    5.1684    1.6077 O   0  0  0  0  0  0  0  0  0  0  0  0
   -4.2628    5.6846    2.5499 N   0  0  0  0  0  0  0  0  0  0  0  0
   -5.0809    4.6527    2.8236 C   0  0  0  0  0  0  0  0  0  0  0  0
   -4.5462    3.4081    3.1561 C   0  0  0  0  0  0  0  0  0  0  0  0
   -5.3946    2.3379    3.4399 C   0  0  0  0  0  0  0  0  0  0  0  0
   -6.7776    2.5124    3.3913 C   0  0  0  0  0  0  0  0  0  0  0  0
   -7.3123    3.7570    3.0589 C   0  0  0  0  0  0  0  0  0  0  0  0
   -6.4639    4.8272    2.7750 C   0  0  0  0  0  0  0  0  0  0  0  0
   -7.6881    1.3638    3.6959 C   0  0  0  0  0  0  0  0  0  0  0  0
   -6.8718    0.1515    4.0202 C   0  0  0  0  0  0  0  0  0  0  0  0
   -7.0854   -1.0391    3.3257 C   0  0  0  0  0  0  0  0  0  0  0  0
   -6.3249   -2.1688    3.6279 C   0  0  0  0  0  0  0  0  0  0  0  0
   -5.3509   -2.1076    4.6245 C   0  0  0  0  0  0  0  0  0  0  0  0
   -5.1373   -0.9170    5.3189 C   0  0  0  0  0  0  0  0  0  0  0  0
   -5.8979    0.2126    5.0167 C   0  0  0  0  0  0  0  0  0  0  0  0
   -4.6177   -3.1969    4.9158 N   0  0  0  0  0  0  0  0  0  0  0  0
   -4.8273   -4.3655    4.2343 C   0  0  0  0  0  0  0  0  0  0  0  0
   -5.6302   -5.1689    4.6456 O   0  0  0  0  0  0  0  0  0  0  0  0
   -4.1429   -4.6178    3.1126 O   0  0  0  0  0  0  0  0  0  0  0  0
   -4.5212   -5.8637    2.5928 C   0  0  0  0  0  0  0  0  0  0  0  0
   -3.7371   -6.1416    1.3171 C   0  0  0  0  0  0  0  0  0  0  0  0
   -4.1481   -7.4951    0.7524 C   0  0  0  0  0  0  0  0  0  0  0  0
   -3.3640   -7.7730   -0.5234 C   0  0  0  0  0  0  0  0  0  0  0  0
   -3.7423   -9.0189   -1.0432 O   0  0  0  0  0  0  0  0  0  0  0  0
   -3.0579   -9.2712   -2.1648 C   0  0  0  0  0  0  0  0  0  0  0  0
   -3.2429  -10.3024   -2.7662 O   0  0  0  0  0  0  0  0  0  0  0  0
   -2.1480   -8.3607   -2.6310 N   0  0  0  0  0  0  0  0  0  0  0  0
   -1.4600   -8.6144   -3.7585 C   0  0  0  0  0  0  0  0  0  0  0  0
   -0.1321   -8.2030   -3.8726 C   0  0  0  0  0  0  0  0  0  0  0  0
    0.5814   -8.4660   -5.0420 C   0  0  0  0  0  0  0  0  0  0  0  0
   -0.0330   -9.1404   -6.0971 C   0  0  0  0  0  0  0  0  0  0  0  0
   -1.3609   -9.5518   -5.9830 C   0  0  0  0  0  0  0  0  0  0  0  0
   -2.0744   -9.2887   -4.8136 C   0  0  0  0  0  0  0  0  0  0  0  0
    0.7327   -9.4226   -7.3521 C   0  0  0  0  0  0  0  0  0  0  0  0
    2.1228   -8.8826   -7.2215 C   0  0  0  0  0  0  0  0  0  0  0  0
    2.6257   -8.0104   -8.1868 C   0  0  0  0  0  0  0  0  0  0  0  0
    3.9210   -7.5073   -8.0651 C   0  0  0  0  0  0  0  0  0  0  0  0
    4.7132   -7.8764   -6.9780 C   0  0  0  0  0  0  0  0  0  0  0  0
    4.2103   -8.7485   -6.0127 C   0  0  0  0  0  0  0  0  0  0  0  0
    2.9150   -9.2516   -6.1344 C   0  0  0  0  0  0  0  0  0  0  0  0
    5.9622   -7.3913   -6.8607 N   0  0  0  0  0  0  0  0  0  0  0  0
    6.4558   -6.5353   -7.8082 C   0  0  0  0  0  0  0  0  0  0  0  0
    7.0411   -6.9720   -8.7705 O   0  0  0  0  0  0  0  0  0  0  0  0
    6.2901   -5.2150   -7.6683 O   0  0  0  0  0  0  0  0  0  0  0  0
    6.8742   -4.5433   -8.7515 C   0  0  0  0  0  0  0  0  0  0  0  0
    6.6804   -3.0421   -8.5833 C   0  0  0  0  0  0  0  0  0  0  0  0
    7.3149   -2.3125   -9.7599 C   0  0  0  0  0  0  0  0  0  0  0  0
    7.1210   -0.8113   -9.5916 C   0  0  0  0  0  0  0  0  0  0  0  0
    7.7051   -0.1397  -10.6749 O   0  0  0  0  0  0  0  0  0  0  0  0
    7.5394    1.1806  -10.5350 C   0  0  0  0  0  0  0  0  0  0  0  0
    7.9750    1.9360  -11.3711 O   0  0  0  0  0  0  0  0  0  0  0  0
    6.8761    1.6756   -9.4445 N   0  0  0  0  0  0  0  0  0  0  0  0
    6.7095    3.0028   -9.3039 C   0  0  0  0  0  0  0  0  0  0  0  0
    6.7598    3.5815   -8.0358 C   0  0  0  0  0  0  0  0  0  0  0  0
    6.5869    4.9579   -7.8901 C   0  0  0  0  0  0  0  0  0  0  0  0
    6.3638    5.7555   -9.0124 C   0  0  0  0  0  0  0  0  0  0  0  0
    6.3136    5.1768  -10.2805 C   0  0  0  0  0  0  0  0  0  0  0  0
    6.4864    3.8004  -10.4262 C   0  0  0  0  0  0  0  0  0  0  0  0
    6.1783    7.2327   -8.8559 C   0  0  0  0  0  0  0  0  0  0  0  0
    6.2760    7.5980   -7.4075 C   0  0  0  0  0  0  0  0  0  0  0  0
    5.2483    8.3186   -6.7992 C   0  0  0  0  0  0  0  0  0  0  0  0
    5.3395    8.6591   -5.4495 C   0  0  0  0  0  0  0  0  0  0  0  0
    6.4581    8.2787   -4.7083 C   0  0  0  0  0  0  0  0  0  0  0  0
    7.4857    7.5580   -5.3166 C   0  0  0  0  0  0  0  0  0  0  0  0
    7.3947    7.2176   -6.6663 C   0  0  0  0  0  0  0  0  0  0  0  0
    6.5459    8.6069   -3.4070 N   0  0  0  0  0  0  0  0  0  0  0  0
    5.5374    9.3144   -2.8099 C   0  0  0  0  0  0  0  0  0  0  0  0
    5.5678   10.5220   -2.8044 O   0  0  0  0  0  0  0  0  0  0  0  0
    4.3876    8.5856   -2.1586 C   0  0  0  0  0  0  0  0  0  0  0  0
   -3.4018    7.9317   11.4263 H   0  0  0  0  0  0  0  0  0  0  0  0
   -2.2123    6.6742   10.8731 H   0  0  0  0  0  0  0  0  0  0  0  0
   -1.9756    8.4161   10.4092 H   0  0  0  0  0  0  0  0  0  0  0  0
   -1.8385    7.8288    8.2718 H   0  0  0  0  0  0  0  0  0  0  0  0
   -2.0740    6.0868    8.7358 H   0  0  0  0  0  0  0  0  0  0  0  0
   -4.1051    5.9766    7.2902 H   0  0  0  0  0  0  0  0  0  0  0  0
   -3.8696    7.7187    6.8263 H   0  0  0  0  0  0  0  0  0  0  0  0
   -1.6264    7.1643    5.8842 H   0  0  0  0  0  0  0  0  0  0  0  0
   -1.8618    5.4222    6.3481 H   0  0  0  0  0  0  0  0  0  0  0  0
   -3.8929    5.3120    4.9026 H   0  0  0  0  0  0  0  0  0  0  0  0
   -3.6575    7.0541    4.4386 H   0  0  0  0  0  0  0  0  0  0  0  0
   -4.6508    6.5876    2.3086 H   0  0  0  0  0  0  0  0  0  0  0  0
   -3.4555    3.2705    3.1945 H   0  0  0  0  0  0  0  0  0  0  0  0
   -4.9729    1.3563    3.7021 H   0  0  0  0  0  0  0  0  0  0  0  0
   -8.4030    3.8946    3.0207 H   0  0  0  0  0  0  0  0  0  0  0  0
   -6.8855    5.8088    2.5128 H   0  0  0  0  0  0  0  0  0  0  0  0
   -8.3308    1.6216    4.5673 H   0  0  0  0  0  0  0  0  0  0  0  0
   -8.3288    1.1535    2.8105 H   0  0  0  0  0  0  0  0  0  0  0  0
   -7.8534   -1.0873    2.5397 H   0  0  0  0  0  0  0  0  0  0  0  0
   -6.4934   -3.1078    3.0803 H   0  0  0  0  0  0  0  0  0  0  0  0
   -4.3692   -0.8688    6.1047 H   0  0  0  0  0  0  0  0  0  0  0  0
   -5.7295    1.1516    5.5644 H   0  0  0  0  0  0  0  0  0  0  0  0
   -3.9110   -3.1525    5.6389 H   0  0  0  0  0  0  0  0  0  0  0  0
   -4.3047   -6.6586    3.3412 H   0  0  0  0  0  0  0  0  0  0  0  0
   -5.6104   -5.8549    2.3642 H   0  0  0  0  0  0  0  0  0  0  0  0
   -3.9536   -5.3468    0.5686 H   0  0  0  0  0  0  0  0  0  0  0  0
   -2.6479   -6.1505    1.5457 H   0  0  0  0  0  0  0  0  0  0  0  0
   -3.9316   -8.2899    1.5008 H   0  0  0  0  0  0  0  0  0  0  0  0
   -5.2373   -7.4862    0.5237 H   0  0  0  0  0  0  0  0  0  0  0  0
   -3.5804   -6.9781   -1.2718 H   0  0  0  0  0  0  0  0  0  0  0  0
   -2.2748   -7.7818   -0.2947 H   0  0  0  0  0  0  0  0  0  0  0  0
   -1.9930   -7.4968   -2.1272 H   0  0  0  0  0  0  0  0  0  0  0  0
    0.3525   -7.6713   -3.0405 H   0  0  0  0  0  0  0  0  0  0  0  0
    1.6286   -8.1415   -5.1322 H   0  0  0  0  0  0  0  0  0  0  0  0
   -1.8454  -10.0837   -6.8150 H   0  0  0  0  0  0  0  0  0  0  0  0
   -3.1216   -9.6131   -4.7235 H   0  0  0  0  0  0  0  0  0  0  0  0
    0.7766  -10.5220   -7.5200 H   0  0  0  0  0  0  0  0  0  0  0  0
    0.2248   -8.9348   -8.2140 H   0  0  0  0  0  0  0  0  0  0  0  0
    2.0009   -7.7193   -9.0440 H   0  0  0  0  0  0  0  0  0  0  0  0
    4.3177   -6.8195   -8.8264 H   0  0  0  0  0  0  0  0  0  0  0  0
    4.8350   -9.0395   -5.1554 H   0  0  0  0  0  0  0  0  0  0  0  0
    2.5183   -9.9395   -5.3731 H   0  0  0  0  0  0  0  0  0  0  0  0
    6.5370   -7.6590   -6.0720 H   0  0  0  0  0  0  0  0  0  0  0  0
    7.9623   -4.7746   -8.7877 H   0  0  0  0  0  0  0  0  0  0  0  0
    6.3917   -4.8758   -9.6978 H   0  0  0  0  0  0  0  0  0  0  0  0
    5.5923   -2.8108   -8.5471 H   0  0  0  0  0  0  0  0  0  0  0  0
    7.1629   -2.7097   -7.6370 H   0  0  0  0  0  0  0  0  0  0  0  0
    8.4030   -2.5438   -9.7961 H   0  0  0  0  0  0  0  0  0  0  0  0
    6.8323   -2.6450  -10.7062 H   0  0  0  0  0  0  0  0  0  0  0  0
    6.0329   -0.5800   -9.5555 H   0  0  0  0  0  0  0  0  0  0  0  0
    7.6035   -0.4789   -8.6454 H   0  0  0  0  0  0  0  0  0  0  0  0
    6.5112    1.0428   -8.7441 H   0  0  0  0  0  0  0  0  0  0  0  0
    6.9358    2.9525   -7.1507 H   0  0  0  0  0  0  0  0  0  0  0  0
    6.6265    5.4144   -6.8900 H   0  0  0  0  0  0  0  0  0  0  0  0
    6.1378    5.8058  -11.1656 H   0  0  0  0  0  0  0  0  0  0  0  0
    6.4468    3.3439  -11.4263 H   0  0  0  0  0  0  0  0  0  0  0  0
    6.9695    7.7680   -9.4272 H   0  0  0  0  0  0  0  0  0  0  0  0
    5.1771    7.5240   -9.2451 H   0  0  0  0  0  0  0  0  0  0  0  0
    4.3661    8.6185   -7.3837 H   0  0  0  0  0  0  0  0  0  0  0  0
    4.5291    9.2275   -4.9698 H   0  0  0  0  0  0  0  0  0  0  0  0
    8.3679    7.2580   -4.7320 H   0  0  0  0  0  0  0  0  0  0  0  0
    8.2051    6.6492   -7.1460 H   0  0  0  0  0  0  0  0  0  0  0  0
    7.3576    8.3310   -2.8692 H   0  0  0  0  0  0  0  0  0  0  0  0
    4.5356    7.4877   -2.2652 H   0  0  0  0  0  0  0  0  0  0  0  0
    4.3453    8.8506   -1.0784 H   0  0  0  0  0  0  0  0  0  0  0  0
    3.4345    8.8809   -2.6516 H   0  0  0  0  0  0  0  0  0  0  0  0
  1  2  1  0      
  1 78  1  0      
  1 79  1  0      
  1 80  1  0      
  2  3  1  0      
  3  4  1  0      
  3 81  1  0      
  3 82  1  0      
  4  5  1  0      
  4 83  1  0      
  4 84  1  0      
  5  6  1  0      
  5 85  1  0      
  5 86  1  0      
  6  7  1  0      
  6 87  1  0      
  6 88  1  0      
  7  8  1  0      
  8  9  2  0      
  8 10  1  0      
 10 11  1  0      
 10 89  1  0      
 11 12  1  0      
 11 16  2  0      
 12 13  2  0      
 12 90  1  0      
 13 14  1  0      
 13 91  1  0      
 14 15  2  0      
 14 17  1  0      
 15 16  1  0      
 15 92  1  0      
 16 93  1  0      
 17 18  1  0      
 17 94  1  0      
 17 95  1  0      
 18 19  1  0      
 18 23  2  0      
 19 20  2  0      
 19 96  1  0      
 20 21  1  0      
 20 97  1  0      
 21 22  2  0      
 21 24  1  0      
 22 23  1  0      
 22 98  1  0      
 23 99  1  0      
 24 25  1  0      
 24100  1  0      
 25 26  2  0      
 25 27  1  0      
 27 28  1  0      
 28 29  1  0      
 28101  1  0      
 28102  1  0      
 29 30  1  0      
 29103  1  0      
 29104  1  0      
 30 31  1  0      
 30105  1  0      
 30106  1  0      
 31 32  1  0      
 31107  1  0      
 31108  1  0      
 32 33  1  0      
 33 34  2  0      
 33 35  1  0      
 35 36  1  0      
 35109  1  0      
 36 37  1  0      
 36 41  2  0      
 37 38  2  0      
 37110  1  0      
 38 39  1  0      
 38111  1  0      
 39 40  2  0      
 39 42  1  0      
 40 41  1  0      
 40112  1  0      
 41113  1  0      
 42 43  1  0      
 42114  1  0      
 42115  1  0      
 43 44  1  0      
 43 48  2  0      
 44 45  2  0      
 44116  1  0      
 45 46  1  0      
 45117  1  0      
 46 47  2  0      
 46 49  1  0      
 47 48  1  0      
 47118  1  0      
 48119  1  0      
 49 50  1  0      
 49120  1  0      
 50 51  2  0      
 50 52  1  0      
 52 53  1  0      
 53 54  1  0      
 53121  1  0      
 53122  1  0      
 54 55  1  0      
 54123  1  0      
 54124  1  0      
 55 56  1  0      
 55125  1  0      
 55126  1  0      
 56 57  1  0      
 56127  1  0      
 56128  1  0      
 57 58  1  0      
 58 59  2  0      
 58 60  1  0      
 60 61  1  0      
 60129  1  0      
 61 62  1  0      
 61 66  2  0      
 62 63  2  0      
 62130  1  0      
 63 64  1  0      
 63131  1  0      
 64 65  2  0      
 64 67  1  0      
 65 66  1  0      
 65132  1  0      
 66133  1  0      
 67 68  1  0      
 67134  1  0      
 67135  1  0      
 68 69  1  0      
 68 73  2  0      
 69 70  2  0      
 69136  1  0      
 70 71  1  0      
 70137  1  0      
 71 72  2  0      
 71 74  1  0      
 72 73  1  0      
 72138  1  0      
 73139  1  0      
 74 75  1  0      
 74140  1  0      
 75 76  2  0      
 75 77  1  0      
 77141  1  0      
 77142  1  0      
 77143  1  0      
M  END
$$$$
