Fragment
  Chem3D Core 21.007272619293D

 36 37  0  0  0  0  0  0  0  0999 V2000
   -4.4562    0.7736   -5.2518 C   0  0  0  0  0  0  0  0  0  0  0  0
   -4.5745    0.1315   -4.0111 O   0  0  0  0  0  0  0  0  0  0  0  0
   -3.3574    0.3179   -3.3407 C   0  0  0  0  0  0  0  0  0  0  0  0
   -3.4188   -0.3589   -1.9778 C   0  0  0  0  0  0  0  0  0  0  0  0
   -2.2017   -0.1725   -1.3074 O   0  0  0  0  0  0  0  0  0  0  0  0
   -2.2469   -0.7644   -0.1083 C   0  0  0  0  0  0  0  0  0  0  0  0
   -3.2460   -1.3470    0.2404 O   0  0  0  0  0  0  0  0  0  0  0  0
   -1.1752   -0.7104    0.7125 C   0  0  0  0  0  0  0  0  0  0  0  0
   -1.2221   -1.3260    1.9599 C   0  0  0  0  0  0  0  0  0  0  0  0
   -0.1147   -1.2700    2.8078 C   0  0  0  0  0  0  0  0  0  0  0  0
    1.0547   -0.5969    2.4179 C   0  0  0  0  0  0  0  0  0  0  0  0
    2.1776   -0.5311    3.2588 C   0  0  0  0  0  0  0  0  0  0  0  0
    3.3322    0.1421    2.8559 C   0  0  0  0  0  0  0  0  0  0  0  0
    3.3792    0.7577    1.6085 C   0  0  0  0  0  0  0  0  0  0  0  0
    2.2717    0.7017    0.7607 C   0  0  0  0  0  0  0  0  0  0  0  0
    1.1024    0.0286    1.1505 C   0  0  0  0  0  0  0  0  0  0  0  0
   -0.0206   -0.0372    0.3097 C   0  0  0  0  0  0  0  0  0  0  0  0
    4.4039    0.1961    3.6768 C   0  0  0  0  0  0  0  0  0  0  0  0
    5.4031    0.7787    3.3280 O   0  0  0  0  0  0  0  0  0  0  0  0
    4.3529   -0.4713    5.0291 C   0  0  0  0  0  0  0  0  0  0  0  0
   -5.4031    0.6530   -5.8243 H   0  0  0  0  0  0  0  0  0  0  0  0
   -4.2560    1.8566   -5.0909 H   0  0  0  0  0  0  0  0  0  0  0  0
   -3.6162    0.3213   -5.8249 H   0  0  0  0  0  0  0  0  0  0  0  0
   -2.5324   -0.1290   -3.9395 H   0  0  0  0  0  0  0  0  0  0  0  0
   -3.1713    1.4070   -3.2059 H   0  0  0  0  0  0  0  0  0  0  0  0
   -4.2438    0.0880   -1.3791 H   0  0  0  0  0  0  0  0  0  0  0  0
   -3.6049   -1.4479   -2.1126 H   0  0  0  0  0  0  0  0  0  0  0  0
   -2.1318   -1.8566    2.2776 H   0  0  0  0  0  0  0  0  0  0  0  0
   -0.1584   -1.7585    3.7924 H   0  0  0  0  0  0  0  0  0  0  0  0
    2.1470   -1.0154    4.2460 H   0  0  0  0  0  0  0  0  0  0  0  0
    4.2889    1.2883    1.2909 H   0  0  0  0  0  0  0  0  0  0  0  0
    2.3153    1.1903   -0.2238 H   0  0  0  0  0  0  0  0  0  0  0  0
    0.0100    0.4473   -0.6774 H   0  0  0  0  0  0  0  0  0  0  0  0
    3.3588   -0.9520    5.1690 H   0  0  0  0  0  0  0  0  0  0  0  0
    5.1505   -1.2452    5.0907 H   0  0  0  0  0  0  0  0  0  0  0  0
    4.5116    0.2905    5.8249 H   0  0  0  0  0  0  0  0  0  0  0  0
  1  2  1  0      
  1 21  1  0      
  1 22  1  0      
  1 23  1  0      
  2  3  1  0      
  3  4  1  0      
  3 24  1  0      
  3 25  1  0      
  4  5  1  0      
  4 26  1  0      
  4 27  1  0      
  5  6  1  0      
  6  7  2  0      
  6  8  1  0      
  8  9  1  0      
  8 17  2  0      
  9 10  2  0      
  9 28  1  0      
 10 11  1  0      
 10 29  1  0      
 11 12  2  0      
 11 16  1  0      
 12 13  1  0      
 12 30  1  0      
 13 14  2  0      
 13 18  1  0      
 14 15  1  0      
 14 31  1  0      
 15 16  2  0      
 15 32  1  0      
 16 17  1  0      
 17 33  1  0      
 18 19  2  0      
 18 20  1  0      
 20 34  1  0      
 20 35  1  0      
 20 36  1  0      
M  END
$$$$
