Fragment
  Chem3D Core 21.007272619303D

 19 19  0  0  0  0  0  0  0  0999 V2000
    0.5921    2.8729   -0.7915 C   0  0  0  0  0  0  0  0  0  0  0  0
    1.9522    1.7122   -0.4801 S   0  0  0  0  0  0  0  0  0  0  0  0
    0.8484    0.3197   -0.1107 C   0  0  0  0  0  0  0  0  0  0  0  0
    1.3831   -0.9249    0.2218 C   0  0  0  0  0  0  0  0  0  0  0  0
    0.5347   -1.9951    0.5056 C   0  0  0  0  0  0  0  0  0  0  0  0
   -0.8483   -1.8206    0.4570 C   0  0  0  0  0  0  0  0  0  0  0  0
   -1.3830   -0.5760    0.1246 C   0  0  0  0  0  0  0  0  0  0  0  0
   -0.5346    0.4942   -0.1593 C   0  0  0  0  0  0  0  0  0  0  0  0
   -1.7588   -2.9692    0.7616 C   0  0  0  0  0  0  0  0  0  0  0  0
    1.0083    3.8705   -1.0567 H   0  0  0  0  0  0  0  0  0  0  0  0
   -0.0313    2.4960   -1.6330 H   0  0  0  0  0  0  0  0  0  0  0  0
   -0.0346    2.9640    0.1238 H   0  0  0  0  0  0  0  0  0  0  0  0
    2.4737   -1.0625    0.2602 H   0  0  0  0  0  0  0  0  0  0  0  0
    0.9563   -2.9767    0.7678 H   0  0  0  0  0  0  0  0  0  0  0  0
   -2.4737   -0.4384    0.0864 H   0  0  0  0  0  0  0  0  0  0  0  0
   -0.9563    1.4758   -0.4215 H   0  0  0  0  0  0  0  0  0  0  0  0
   -1.1520   -3.8705    1.0027 H   0  0  0  0  0  0  0  0  0  0  0  0
   -2.4016   -2.7114    1.6330 H   0  0  0  0  0  0  0  0  0  0  0  0
   -2.3995   -3.1794   -0.1238 H   0  0  0  0  0  0  0  0  0  0  0  0
  1  2  1  0      
  1 10  1  0      
  1 11  1  0      
  1 12  1  0      
  2  3  1  0      
  3  4  1  0      
  3  8  2  0      
  4  5  2  0      
  4 13  1  0      
  5  6  1  0      
  5 14  1  0      
  6  7  2  0      
  6  9  1  0      
  7  8  1  0      
  7 15  1  0      
  8 16  1  0      
  9 17  1  0      
  9 18  1  0      
  9 19  1  0      
M  END
$$$$
