Fragment
  Chem3D Core 21.007272619283D

 26 25  0  0  0  0  0  0  0  0999 V2000
    2.2295    3.1554   -1.6758 C   0  0  0  0  0  0  0  0  0  0  0  0
    0.9105    2.3940   -1.6758 C   0  0  0  0  0  0  0  0  0  0  0  0
   -0.1479    3.2981   -1.6758 F   0  0  0  0  0  0  0  0  0  0  0  0
    0.8370    1.5945   -2.8130 F   0  0  0  0  0  0  0  0  0  0  0  0
    0.8300    1.5184   -0.4322 C   0  0  0  0  0  0  0  0  0  0  0  0
    1.8878    0.6136   -0.4317 F   0  0  0  0  0  0  0  0  0  0  0  0
    0.9048    2.3193    0.7039 F   0  0  0  0  0  0  0  0  0  0  0  0
   -0.4890    0.7570   -0.4322 C   0  0  0  0  0  0  0  0  0  0  0  0
   -1.5474    1.6611   -0.4322 F   0  0  0  0  0  0  0  0  0  0  0  0
   -0.5625   -0.0424   -1.5694 F   0  0  0  0  0  0  0  0  0  0  0  0
   -0.5695   -0.1185    0.8114 C   0  0  0  0  0  0  0  0  0  0  0  0
    0.4883   -1.0233    0.8119 F   0  0  0  0  0  0  0  0  0  0  0  0
   -0.4947    0.6824    1.9475 F   0  0  0  0  0  0  0  0  0  0  0  0
   -1.8885   -0.8799    0.8114 C   0  0  0  0  0  0  0  0  0  0  0  0
   -2.9469    0.0242    0.8114 F   0  0  0  0  0  0  0  0  0  0  0  0
   -1.9621   -1.6793   -0.3258 F   0  0  0  0  0  0  0  0  0  0  0  0
   -1.9690   -1.7554    2.0550 C   0  0  0  0  0  0  0  0  0  0  0  0
   -0.8128   -1.5933    2.8130 F   0  0  0  0  0  0  0  0  0  0  0  0
   -3.0758   -1.3833    2.8128 F   0  0  0  0  0  0  0  0  0  0  0  0
   -2.1035   -3.2147    1.6403 C   0  0  0  0  0  0  0  0  0  0  0  0
    3.0758    2.4325   -1.6758 H   0  0  0  0  0  0  0  0  0  0  0  0
    2.2883    3.7946   -0.7665 H   0  0  0  0  0  0  0  0  0  0  0  0
    2.2883    3.7952   -2.5846 H   0  0  0  0  0  0  0  0  0  0  0  0
   -2.1103   -3.2862    0.5296 H   0  0  0  0  0  0  0  0  0  0  0  0
   -1.2439   -3.7952    2.0437 H   0  0  0  0  0  0  0  0  0  0  0  0
   -3.0543   -3.6289    2.0444 H   0  0  0  0  0  0  0  0  0  0  0  0
  1  2  1  0      
  1 21  1  0      
  1 22  1  0      
  1 23  1  0      
  2  3  1  0      
  2  4  1  0      
  2  5  1  0      
  5  6  1  0      
  5  7  1  0      
  5  8  1  0      
  8  9  1  0      
  8 10  1  0      
  8 11  1  0      
 11 12  1  0      
 11 13  1  0      
 11 14  1  0      
 14 15  1  0      
 14 16  1  0      
 14 17  1  0      
 17 18  1  0      
 17 19  1  0      
 17 20  1  0      
 20 24  1  0      
 20 25  1  0      
 20 26  1  0      
M  END
$$$$
