Fragment
  Chem3D Core 21.007272619303D

 59 61  0  0  0  0  0  0  0  0999 V2000
    4.0110    3.0745    0.2734 C   0  0  0  0  0  0  0  0  0  0  0  0
    4.7485    1.9226    0.5815 O   0  0  0  0  0  0  0  0  0  0  0  0
    3.9244    0.8830    0.8573 C   0  0  0  0  0  0  0  0  0  0  0  0
    4.4591   -0.3616    1.1898 C   0  0  0  0  0  0  0  0  0  0  0  0
    5.9434   -0.5488    1.2421 C   0  0  0  0  0  0  0  0  0  0  0  0
    3.6107   -1.4318    1.4736 C   0  0  0  0  0  0  0  0  0  0  0  0
    2.2277   -1.2573    1.4250 C   0  0  0  0  0  0  0  0  0  0  0  0
    1.6930   -0.0127    1.0926 C   0  0  0  0  0  0  0  0  0  0  0  0
    2.5414    1.0575    0.8087 C   0  0  0  0  0  0  0  0  0  0  0  0
    1.9676    2.3934    0.4519 C   0  0  0  0  0  0  0  0  0  0  0  0
    1.4036   -2.2969    1.7007 O   0  0  0  0  0  0  0  0  0  0  0  0
    0.0976   -1.9484    1.6059 C   0  0  0  0  0  0  0  0  0  0  0  0
   -0.6757   -1.8208    2.7597 C   0  0  0  0  0  0  0  0  0  0  0  0
   -0.0628   -2.0689    4.1028 C   0  0  0  0  0  0  0  0  0  0  0  0
   -2.0201   -1.4622    2.6620 C   0  0  0  0  0  0  0  0  0  0  0  0
   -2.5911   -1.2310    1.4106 C   0  0  0  0  0  0  0  0  0  0  0  0
   -1.8178   -1.3584    0.2568 C   0  0  0  0  0  0  0  0  0  0  0  0
   -0.4733   -1.7172    0.3545 C   0  0  0  0  0  0  0  0  0  0  0  0
    0.3567   -1.8541   -0.8838 C   0  0  0  0  0  0  0  0  0  0  0  0
   -3.8971   -0.8825    1.3157 O   0  0  0  0  0  0  0  0  0  0  0  0
   -4.2811   -0.6981    0.0294 C   0  0  0  0  0  0  0  0  0  0  0  0
   -4.5334    0.5890   -0.4453 C   0  0  0  0  0  0  0  0  0  0  0  0
   -4.3798    1.7665    0.4662 C   0  0  0  0  0  0  0  0  0  0  0  0
   -4.9288    0.7788   -1.7694 C   0  0  0  0  0  0  0  0  0  0  0  0
   -5.0718   -0.3183   -2.6187 C   0  0  0  0  0  0  0  0  0  0  0  0
   -4.8194   -1.6053   -2.1440 C   0  0  0  0  0  0  0  0  0  0  0  0
   -4.4241   -1.7952   -0.8198 C   0  0  0  0  0  0  0  0  0  0  0  0
   -4.1533   -3.1765   -0.3103 C   0  0  0  0  0  0  0  0  0  0  0  0
   -5.4961   -0.1145   -4.0397 C   0  0  0  0  0  0  0  0  0  0  0  0
    4.7078    3.9134    0.0509 H   0  0  0  0  0  0  0  0  0  0  0  0
    3.3716    2.8781   -0.6162 H   0  0  0  0  0  0  0  0  0  0  0  0
    3.3683    3.3463    1.1405 H   0  0  0  0  0  0  0  0  0  0  0  0
    6.4480    0.4100    0.9874 H   0  0  0  0  0  0  0  0  0  0  0  0
    6.2413   -0.8633    2.2674 H   0  0  0  0  0  0  0  0  0  0  0  0
    6.2444   -1.3319    0.5107 H   0  0  0  0  0  0  0  0  0  0  0  0
    4.0323   -2.4134    1.7358 H   0  0  0  0  0  0  0  0  0  0  0  0
    0.6023    0.1249    1.0544 H   0  0  0  0  0  0  0  0  0  0  0  0
    0.8562    2.3359    0.4655 H   0  0  0  0  0  0  0  0  0  0  0  0
    2.3084    3.1524    1.1911 H   0  0  0  0  0  0  0  0  0  0  0  0
    2.3114    2.6848   -0.5658 H   0  0  0  0  0  0  0  0  0  0  0  0
    1.0090   -2.3416    3.9774 H   0  0  0  0  0  0  0  0  0  0  0  0
   -0.1406   -1.1469    4.7214 H   0  0  0  0  0  0  0  0  0  0  0  0
   -0.6009   -2.9021    4.6077 H   0  0  0  0  0  0  0  0  0  0  0  0
   -2.6300   -1.3617    3.5719 H   0  0  0  0  0  0  0  0  0  0  0  0
   -2.2681   -1.1760   -0.7301 H   0  0  0  0  0  0  0  0  0  0  0  0
   -0.2691   -1.6318   -1.7770 H   0  0  0  0  0  0  0  0  0  0  0  0
    1.2078   -1.1381   -0.8403 H   0  0  0  0  0  0  0  0  0  0  0  0
    0.7483   -2.8935   -0.9547 H   0  0  0  0  0  0  0  0  0  0  0  0
   -4.0604    1.4174    1.4736 H   0  0  0  0  0  0  0  0  0  0  0  0
   -3.6113    2.4573    0.0527 H   0  0  0  0  0  0  0  0  0  0  0  0
   -5.3529    2.3001    0.5500 H   0  0  0  0  0  0  0  0  0  0  0  0
   -5.1278    1.7938   -2.1438 H   0  0  0  0  0  0  0  0  0  0  0  0
   -4.9321   -2.4706   -2.8138 H   0  0  0  0  0  0  0  0  0  0  0  0
   -4.3198   -3.9134   -1.1277 H   0  0  0  0  0  0  0  0  0  0  0  0
   -3.0985   -3.2425    0.0387 H   0  0  0  0  0  0  0  0  0  0  0  0
   -4.8399   -3.4006    0.5366 H   0  0  0  0  0  0  0  0  0  0  0  0
   -5.6489    0.9715   -4.2297 H   0  0  0  0  0  0  0  0  0  0  0  0
   -4.7064   -0.5023   -4.7214 H   0  0  0  0  0  0  0  0  0  0  0  0
   -6.4480   -0.6608   -4.2245 H   0  0  0  0  0  0  0  0  0  0  0  0
  1  2  1  0      
  1 30  1  0      
  1 31  1  0      
  1 32  1  0      
  2  3  1  0      
  3  4  1  0      
  3  9  2  0      
  4  5  1  0      
  4  6  2  0      
  5 33  1  0      
  5 34  1  0      
  5 35  1  0      
  6  7  1  0      
  6 36  1  0      
  7  8  2  0      
  7 11  1  0      
  8  9  1  0      
  8 37  1  0      
  9 10  1  0      
 10 38  1  0      
 10 39  1  0      
 10 40  1  0      
 11 12  1  0      
 12 13  1  0      
 12 18  2  0      
 13 14  1  0      
 13 15  2  0      
 14 41  1  0      
 14 42  1  0      
 14 43  1  0      
 15 16  1  0      
 15 44  1  0      
 16 17  2  0      
 16 20  1  0      
 17 18  1  0      
 17 45  1  0      
 18 19  1  0      
 19 46  1  0      
 19 47  1  0      
 19 48  1  0      
 20 21  1  0      
 21 22  1  0      
 21 27  2  0      
 22 23  1  0      
 22 24  2  0      
 23 49  1  0      
 23 50  1  0      
 23 51  1  0      
 24 25  1  0      
 24 52  1  0      
 25 26  2  0      
 25 29  1  0      
 26 27  1  0      
 26 53  1  0      
 27 28  1  0      
 28 54  1  0      
 28 55  1  0      
 28 56  1  0      
 29 57  1  0      
 29 58  1  0      
 29 59  1  0      
M  END
$$$$
