Fragment
  Chem3D Core 21.007272619293D

 15 15  0  0  0  0  0  0  0  0999 V2000
    2.2600    1.0818    0.6261 C   0  0  0  0  0  0  0  0  0  0  0  0
    1.0864    0.2693    0.1749 C   0  0  0  0  0  0  0  0  0  0  0  0
    1.1604   -0.7313   -0.7692 C   0  0  0  0  0  0  0  0  0  0  0  0
   -0.1074   -1.3377   -1.0057 C   0  0  0  0  0  0  0  0  0  0  0  0
   -1.1005   -0.7766   -0.2330 C   0  0  0  0  0  0  0  0  0  0  0  0
   -0.5047    0.4746    0.7715 S   0  0  0  0  0  0  0  0  0  0  0  0
   -2.5328   -1.2104   -0.2679 C   0  0  0  0  0  0  0  0  0  0  0  0
    3.1732    0.7482    0.0842 H   0  0  0  0  0  0  0  0  0  0  0  0
    2.0720    2.1569    0.4083 H   0  0  0  0  0  0  0  0  0  0  0  0
    2.4074    0.9443    1.7207 H   0  0  0  0  0  0  0  0  0  0  0  0
    2.0885   -1.0272   -1.2801 H   0  0  0  0  0  0  0  0  0  0  0  0
   -0.2734   -2.1569   -1.7207 H   0  0  0  0  0  0  0  0  0  0  0  0
   -2.6526   -2.0380   -1.0024 H   0  0  0  0  0  0  0  0  0  0  0  0
   -2.8373   -1.5648    0.7423 H   0  0  0  0  0  0  0  0  0  0  0  0
   -3.1732   -0.3515   -0.5693 H   0  0  0  0  0  0  0  0  0  0  0  0
  1  2  1  0      
  1  8  1  0      
  1  9  1  0      
  1 10  1  0      
  2  3  2  0      
  2  6  1  0      
  3  4  1  0      
  3 11  1  0      
  4  5  2  0      
  4 12  1  0      
  5  6  1  0      
  5  7  1  0      
  7 13  1  0      
  7 14  1  0      
  7 15  1  0      
M  END
$$$$
