Fragment
  Chem3D Core 21.007272619273D

 26 25  0  0  0  0  0  0  0  0999 V2000
   -3.6569    0.8096    1.2420 C   0  0  0  0  0  0  0  0  0  0  0  0
   -2.3380    0.0479    1.2420 C   0  0  0  0  0  0  0  0  0  0  0  0
   -1.1798    1.0369    1.2420 C   0  0  0  0  0  0  0  0  0  0  0  0
   -1.2735    2.0694    2.7074 Cl  0  0  0  0  0  0  0  0  0  0  0  0
    0.1383    0.2738    1.2430 C   0  0  0  0  0  0  0  0  0  0  0  0
    0.9384    0.6398   -0.0002 C   0  0  0  0  0  0  0  0  0  0  0  0
    1.2694    2.4040   -0.0019 Cl  0  0  0  0  0  0  0  0  0  0  0  0
    2.2565   -0.1232    0.0025 C   0  0  0  0  0  0  0  0  0  0  0  0
    2.3385   -1.0007   -1.2396 C   0  0  0  0  0  0  0  0  0  0  0  0
    2.2469    0.0285   -2.7074 Cl  0  0  0  0  0  0  0  0  0  0  0  0
    3.6574   -1.7624   -1.2360 C   0  0  0  0  0  0  0  0  0  0  0  0
   -4.5033    0.0869    1.2420 H   0  0  0  0  0  0  0  0  0  0  0  0
   -3.7155    1.4488    2.1513 H   0  0  0  0  0  0  0  0  0  0  0  0
   -3.7156    1.4495    0.3332 H   0  0  0  0  0  0  0  0  0  0  0  0
   -2.2794   -0.5913    0.3328 H   0  0  0  0  0  0  0  0  0  0  0  0
   -2.2793   -0.5919    2.1508 H   0  0  0  0  0  0  0  0  0  0  0  0
   -1.2385    1.6767    0.3332 H   0  0  0  0  0  0  0  0  0  0  0  0
    0.7217    0.5433    2.1517 H   0  0  0  0  0  0  0  0  0  0  0  0
   -0.0665   -0.8201    1.2434 H   0  0  0  0  0  0  0  0  0  0  0  0
    0.3550    0.3710   -0.9091 H   0  0  0  0  0  0  0  0  0  0  0  0
    3.1029    0.5995    0.0021 H   0  0  0  0  0  0  0  0  0  0  0  0
    2.3133   -0.7620    0.9122 H   0  0  0  0  0  0  0  0  0  0  0  0
    1.4918   -1.7232   -1.2398 H   0  0  0  0  0  0  0  0  0  0  0  0
    3.7183   -2.4040   -2.1434 H   0  0  0  0  0  0  0  0  0  0  0  0
    3.7139   -2.4010   -0.3262 H   0  0  0  0  0  0  0  0  0  0  0  0
    4.5033   -1.0391   -1.2358 H   0  0  0  0  0  0  0  0  0  0  0  0
  1  2  1  0      
  1 12  1  0      
  1 13  1  0      
  1 14  1  0      
  2  3  1  0      
  2 15  1  0      
  2 16  1  0      
  3  4  1  0      
  3  5  1  0      
  3 17  1  0      
  5  6  1  0      
  5 18  1  0      
  5 19  1  0      
  6  7  1  0      
  6  8  1  0      
  6 20  1  0      
  8  9  1  0      
  8 21  1  0      
  8 22  1  0      
  9 10  1  0      
  9 11  1  0      
  9 23  1  0      
 11 24  1  0      
 11 25  1  0      
 11 26  1  0      
M  END
$$$$
