Fragment
  Chem3D Core 21.007272619283D

 14 13  0  0  0  0  0  0  0  0999 V2000
   -0.4378   -1.8495   -0.4322 C   0  0  0  0  0  0  0  0  0  0  0  0
    0.3237   -0.5305   -0.4322 C   0  0  0  0  0  0  0  0  0  0  0  0
    1.6924   -0.7842   -0.4322 F   0  0  0  0  0  0  0  0  0  0  0  0
   -0.0124    0.1985   -1.5694 F   0  0  0  0  0  0  0  0  0  0  0  0
   -0.0444    0.2679    0.8114 C   0  0  0  0  0  0  0  0  0  0  0  0
   -0.9646   -0.4507    1.5694 F   0  0  0  0  0  0  0  0  0  0  0  0
    1.1002    0.4991    1.5691 F   0  0  0  0  0  0  0  0  0  0  0  0
   -0.6577    1.5989    0.3967 C   0  0  0  0  0  0  0  0  0  0  0  0
   -1.5321   -1.6467   -0.4322 H   0  0  0  0  0  0  0  0  0  0  0  0
   -0.1690   -2.4324    0.4770 H   0  0  0  0  0  0  0  0  0  0  0  0
   -0.1687   -2.4330   -1.3410 H   0  0  0  0  0  0  0  0  0  0  0  0
   -0.6876    1.6642   -0.7139 H   0  0  0  0  0  0  0  0  0  0  0  0
   -1.6924    1.6717    0.8002 H   0  0  0  0  0  0  0  0  0  0  0  0
   -0.0414    2.4330    0.8008 H   0  0  0  0  0  0  0  0  0  0  0  0
  1  2  1  0      
  1  9  1  0      
  1 10  1  0      
  1 11  1  0      
  2  3  1  0      
  2  4  1  0      
  2  5  1  0      
  5  6  1  0      
  5  7  1  0      
  5  8  1  0      
  8 12  1  0      
  8 13  1  0      
  8 14  1  0      
M  END
$$$$
