Fragment
  Chem3D Core 21.007272619273D

 14 13  0  0  0  0  0  0  0  0999 V2000
   -1.8980    0.0708   -0.2780 C   0  0  0  0  0  0  0  0  0  0  0  0
   -0.5791   -0.6908   -0.2780 C   0  0  0  0  0  0  0  0  0  0  0  0
    0.5791    0.2982   -0.2780 C   0  0  0  0  0  0  0  0  0  0  0  0
    0.4854    1.3307    1.1873 Cl  0  0  0  0  0  0  0  0  0  0  0  0
    1.8972   -0.4648   -0.2771 C   0  0  0  0  0  0  0  0  0  0  0  0
   -2.7444   -0.6520   -0.2780 H   0  0  0  0  0  0  0  0  0  0  0  0
   -1.9566    0.7100    0.6312 H   0  0  0  0  0  0  0  0  0  0  0  0
   -1.9567    0.7106   -1.1869 H   0  0  0  0  0  0  0  0  0  0  0  0
   -0.5204   -1.3300   -1.1873 H   0  0  0  0  0  0  0  0  0  0  0  0
   -0.5203   -1.3307    0.6308 H   0  0  0  0  0  0  0  0  0  0  0  0
    0.5204    0.9380   -1.1869 H   0  0  0  0  0  0  0  0  0  0  0  0
    2.7444    0.2571   -0.2771 H   0  0  0  0  0  0  0  0  0  0  0  0
    1.9556   -1.1045   -1.1861 H   0  0  0  0  0  0  0  0  0  0  0  0
    1.9549   -1.1042    0.6320 H   0  0  0  0  0  0  0  0  0  0  0  0
  1  2  1  0      
  1  6  1  0      
  1  7  1  0      
  1  8  1  0      
  2  3  1  0      
  2  9  1  0      
  2 10  1  0      
  3  4  1  0      
  3  5  1  0      
  3 11  1  0      
  5 12  1  0      
  5 13  1  0      
  5 14  1  0      
M  END
$$$$
