Fragment
  Chem3D Core 21.007272619273D

 44 43  0  0  0  0  0  0  0  0999 V2000
    3.6571    0.0801   -1.0360 C   0  0  0  0  0  0  0  0  0  0  0  0
    2.3381   -0.6814   -1.0360 C   0  0  0  0  0  0  0  0  0  0  0  0
    1.1800    0.3077   -1.0360 C   0  0  0  0  0  0  0  0  0  0  0  0
    1.2597    1.1837   -2.2793 C   0  0  0  0  0  0  0  0  0  0  0  0
    1.1793    0.3090   -3.5234 C   0  0  0  0  0  0  0  0  0  0  0  0
   -0.1382   -0.4551   -1.0369 C   0  0  0  0  0  0  0  0  0  0  0  0
   -0.9382   -0.0890    0.2063 C   0  0  0  0  0  0  0  0  0  0  0  0
   -1.2188    1.4079    0.2078 C   0  0  0  0  0  0  0  0  0  0  0  0
   -0.6078    2.0384    1.4522 C   0  0  0  0  0  0  0  0  0  0  0  0
   -2.2564   -0.8518    0.2036 C   0  0  0  0  0  0  0  0  0  0  0  0
   -2.3386   -1.7293    1.4457 C   0  0  0  0  0  0  0  0  0  0  0  0
   -2.2607   -0.8561    2.6911 C   0  0  0  0  0  0  0  0  0  0  0  0
   -1.0507   -1.2623    3.5219 C   0  0  0  0  0  0  0  0  0  0  0  0
   -3.6576   -2.4908    1.4421 C   0  0  0  0  0  0  0  0  0  0  0  0
    4.5034   -0.6428   -1.0360 H   0  0  0  0  0  0  0  0  0  0  0  0
    3.7158    0.7193   -1.9452 H   0  0  0  0  0  0  0  0  0  0  0  0
    3.7159    0.7199   -0.1271 H   0  0  0  0  0  0  0  0  0  0  0  0
    2.2794   -1.3206   -0.1267 H   0  0  0  0  0  0  0  0  0  0  0  0
    2.2793   -1.3212   -1.9448 H   0  0  0  0  0  0  0  0  0  0  0  0
    1.2388    0.9475   -0.1271 H   0  0  0  0  0  0  0  0  0  0  0  0
    0.4126    1.9057   -2.2786 H   0  0  0  0  0  0  0  0  0  0  0  0
    2.2232    1.7409   -2.2793 H   0  0  0  0  0  0  0  0  0  0  0  0
    1.2375    0.9492   -4.4320 H   0  0  0  0  0  0  0  0  0  0  0  0
    2.0263   -0.4129   -3.5241 H   0  0  0  0  0  0  0  0  0  0  0  0
    0.2158   -0.2481   -3.5234 H   0  0  0  0  0  0  0  0  0  0  0  0
   -0.7216   -0.1855   -1.9456 H   0  0  0  0  0  0  0  0  0  0  0  0
    0.0665   -1.5491   -1.0373 H   0  0  0  0  0  0  0  0  0  0  0  0
   -0.3549   -0.3579    1.1152 H   0  0  0  0  0  0  0  0  0  0  0  0
   -0.7700    1.8698   -0.7000 H   0  0  0  0  0  0  0  0  0  0  0  0
   -2.3185    1.5791    0.2072 H   0  0  0  0  0  0  0  0  0  0  0  0
   -0.8128    3.1324    1.4533 H   0  0  0  0  0  0  0  0  0  0  0  0
   -1.0565    1.5765    2.3600 H   0  0  0  0  0  0  0  0  0  0  0  0
    0.4920    1.8672    1.4528 H   0  0  0  0  0  0  0  0  0  0  0  0
   -3.1028   -0.1290    0.2040 H   0  0  0  0  0  0  0  0  0  0  0  0
   -2.3134   -1.4906   -0.7061 H   0  0  0  0  0  0  0  0  0  0  0  0
   -1.4920   -2.4519    1.4459 H   0  0  0  0  0  0  0  0  0  0  0  0
   -2.1621    0.2108    2.3899 H   0  0  0  0  0  0  0  0  0  0  0  0
   -3.1864   -0.9880    3.2949 H   0  0  0  0  0  0  0  0  0  0  0  0
   -0.9938   -0.6241    4.4320 H   0  0  0  0  0  0  0  0  0  0  0  0
   -1.1494   -2.3292    3.8231 H   0  0  0  0  0  0  0  0  0  0  0  0
   -0.1251   -1.1304    2.9181 H   0  0  0  0  0  0  0  0  0  0  0  0
   -3.7186   -3.1324    2.3495 H   0  0  0  0  0  0  0  0  0  0  0  0
   -3.7142   -3.1294    0.5323 H   0  0  0  0  0  0  0  0  0  0  0  0
   -4.5034   -1.7673    1.4419 H   0  0  0  0  0  0  0  0  0  0  0  0
  1  2  1  0      
  1 15  1  0      
  1 16  1  0      
  1 17  1  0      
  2  3  1  0      
  2 18  1  0      
  2 19  1  0      
  3  4  1  0      
  3  6  1  0      
  3 20  1  0      
  4  5  1  0      
  4 21  1  0      
  4 22  1  0      
  5 23  1  0      
  5 24  1  0      
  5 25  1  0      
  6  7  1  0      
  6 26  1  0      
  6 27  1  0      
  7  8  1  0      
  7 10  1  0      
  7 28  1  0      
  8  9  1  0      
  8 29  1  0      
  8 30  1  0      
  9 31  1  0      
  9 32  1  0      
  9 33  1  0      
 10 11  1  0      
 10 34  1  0      
 10 35  1  0      
 11 12  1  0      
 11 14  1  0      
 11 36  1  0      
 12 13  1  0      
 12 37  1  0      
 12 38  1  0      
 13 39  1  0      
 13 40  1  0      
 13 41  1  0      
 14 42  1  0      
 14 43  1  0      
 14 44  1  0      
M  END
$$$$
