Fragment
  Chem3D Core 21.007272619303D

170181  0  0  0  0  0  0  0  0999 V2000
   11.0980   -7.0773    9.6396 C   0  0  0  0  0  0  0  0  0  0  0  0
   11.8356   -8.2292    9.9476 O   0  0  0  0  0  0  0  0  0  0  0  0
   11.0115   -9.2688   10.2234 C   0  0  0  0  0  0  0  0  0  0  0  0
   11.5462  -10.5134   10.5559 C   0  0  0  0  0  0  0  0  0  0  0  0
   10.6978  -11.5836   10.8397 C   0  0  0  0  0  0  0  0  0  0  0  0
    9.3148  -11.4091   10.7911 C   0  0  0  0  0  0  0  0  0  0  0  0
    8.7801  -10.1645   10.4587 C   0  0  0  0  0  0  0  0  0  0  0  0
    9.6285   -9.0943   10.1748 C   0  0  0  0  0  0  0  0  0  0  0  0
    8.4043  -12.5577   11.0958 C   0  0  0  0  0  0  0  0  0  0  0  0
    9.2346  -13.7910   11.4256 C   0  0  0  0  0  0  0  0  0  0  0  0
    7.5247  -12.2050   12.2881 C   0  0  0  0  0  0  0  0  0  0  0  0
    7.5425  -12.8405    9.9048 C   0  0  0  0  0  0  0  0  0  0  0  0
    8.1277  -13.1880    8.6873 C   0  0  0  0  0  0  0  0  0  0  0  0
    7.3247  -13.4514    7.5776 C   0  0  0  0  0  0  0  0  0  0  0  0
    5.9366  -13.3674    7.6854 C   0  0  0  0  0  0  0  0  0  0  0  0
    5.3514  -13.0199    8.9029 C   0  0  0  0  0  0  0  0  0  0  0  0
    6.1544  -12.7564   10.0126 C   0  0  0  0  0  0  0  0  0  0  0  0
    5.1566  -13.6233    6.6074 O   0  0  0  0  0  0  0  0  0  0  0  0
    3.8383  -13.4947    6.8928 C   0  0  0  0  0  0  0  0  0  0  0  0
    3.0305  -14.6282    6.9829 C   0  0  0  0  0  0  0  0  0  0  0  0
    1.6733  -14.4958    7.2766 C   0  0  0  0  0  0  0  0  0  0  0  0
    1.1241  -13.2300    7.4802 C   0  0  0  0  0  0  0  0  0  0  0  0
    1.9319  -12.0965    7.3901 C   0  0  0  0  0  0  0  0  0  0  0  0
    3.2890  -12.2288    7.0964 C   0  0  0  0  0  0  0  0  0  0  0  0
   -0.6175  -13.0601    7.8570 S   0  0  0  0  0  0  0  0  0  0  0  0
   -1.2348  -14.3717    7.8947 O   0  0  0  0  0  0  0  0  0  0  0  0
   -0.7716  -12.4170    9.1474 O   0  0  0  0  0  0  0  0  0  0  0  0
   -1.4066  -12.0657    6.5951 C   0  0  0  0  0  0  0  0  0  0  0  0
   -0.8693  -12.0164    5.3088 C   0  0  0  0  0  0  0  0  0  0  0  0
   -1.4842  -11.2413    4.3255 C   0  0  0  0  0  0  0  0  0  0  0  0
   -2.6363  -10.5158    4.6284 C   0  0  0  0  0  0  0  0  0  0  0  0
   -3.1736  -10.5652    5.9146 C   0  0  0  0  0  0  0  0  0  0  0  0
   -2.5587  -11.3402    6.8980 C   0  0  0  0  0  0  0  0  0  0  0  0
   -3.2335   -9.7630    3.6731 O   0  0  0  0  0  0  0  0  0  0  0  0
   -4.3358   -9.1293    4.1417 C   0  0  0  0  0  0  0  0  0  0  0  0
   -5.6044   -9.5495    3.7422 C   0  0  0  0  0  0  0  0  0  0  0  0
   -6.7391   -8.8972    4.2244 C   0  0  0  0  0  0  0  0  0  0  0  0
   -6.6051   -7.8248    5.1062 C   0  0  0  0  0  0  0  0  0  0  0  0
   -5.3365   -7.4046    5.5057 C   0  0  0  0  0  0  0  0  0  0  0  0
   -4.2018   -8.0569    5.0234 C   0  0  0  0  0  0  0  0  0  0  0  0
   -7.8229   -7.1247    5.6237 C   0  0  0  0  0  0  0  0  0  0  0  0
   -9.0699   -7.7738    5.0381 C   0  0  0  0  0  0  0  0  0  0  0  0
   -7.8617   -7.2310    7.1425 C   0  0  0  0  0  0  0  0  0  0  0  0
   -7.7768   -5.6827    5.2243 C   0  0  0  0  0  0  0  0  0  0  0  0
   -8.8107   -4.8230    5.5950 C   0  0  0  0  0  0  0  0  0  0  0  0
   -8.7678   -3.4794    5.2227 C   0  0  0  0  0  0  0  0  0  0  0  0
   -7.6910   -2.9956    4.4797 C   0  0  0  0  0  0  0  0  0  0  0  0
   -6.6570   -3.8553    4.1091 C   0  0  0  0  0  0  0  0  0  0  0  0
   -6.7000   -5.1989    4.4813 C   0  0  0  0  0  0  0  0  0  0  0  0
   -7.6493   -1.6904    4.1181 O   0  0  0  0  0  0  0  0  0  0  0  0
   -6.5361   -1.3970    3.4035 C   0  0  0  0  0  0  0  0  0  0  0  0
   -5.5169   -0.6392    3.9802 C   0  0  0  0  0  0  0  0  0  0  0  0
   -4.3709   -0.3371    3.2445 C   0  0  0  0  0  0  0  0  0  0  0  0
   -4.2442   -0.7928    1.9324 C   0  0  0  0  0  0  0  0  0  0  0  0
   -5.2634   -1.5506    1.3558 C   0  0  0  0  0  0  0  0  0  0  0  0
   -6.4094   -1.8527    2.0914 C   0  0  0  0  0  0  0  0  0  0  0  0
   -2.7736   -0.4051    0.9884 S   0  0  0  0  0  0  0  0  0  0  0  0
   -1.8711    0.3864    1.8017 O   0  0  0  0  0  0  0  0  0  0  0  0
   -2.1150   -1.6352    0.5940 O   0  0  0  0  0  0  0  0  0  0  0  0
   -3.2301    0.5238   -0.4721 C   0  0  0  0  0  0  0  0  0  0  0  0
   -2.2466    0.9416   -1.3685 C   0  0  0  0  0  0  0  0  0  0  0  0
   -2.6023    1.6655   -2.5065 C   0  0  0  0  0  0  0  0  0  0  0  0
   -3.9415    1.9714   -2.7481 C   0  0  0  0  0  0  0  0  0  0  0  0
   -4.9251    1.5534   -1.8518 C   0  0  0  0  0  0  0  0  0  0  0  0
   -4.5694    0.8296   -0.7138 C   0  0  0  0  0  0  0  0  0  0  0  0
   -4.2871    2.6745   -3.8537 O   0  0  0  0  0  0  0  0  0  0  0  0
   -5.6244    2.8796   -3.9273 C   0  0  0  0  0  0  0  0  0  0  0  0
   -6.3846    2.1907   -4.8723 C   0  0  0  0  0  0  0  0  0  0  0  0
   -7.7613    2.4020   -4.9483 C   0  0  0  0  0  0  0  0  0  0  0  0
   -8.3777    3.3020   -4.0791 C   0  0  0  0  0  0  0  0  0  0  0  0
   -7.6176    3.9909   -3.1340 C   0  0  0  0  0  0  0  0  0  0  0  0
   -6.2409    3.7797   -3.0582 C   0  0  0  0  0  0  0  0  0  0  0  0
   -9.8552    3.5287   -4.1606 C   0  0  0  0  0  0  0  0  0  0  0  0
  -10.4424    2.6615   -5.2663 C   0  0  0  0  0  0  0  0  0  0  0  0
  -10.4989    3.1591   -2.8307 C   0  0  0  0  0  0  0  0  0  0  0  0
  -10.1228    4.9704   -4.4622 C   0  0  0  0  0  0  0  0  0  0  0  0
  -11.3890    5.5078   -4.2313 C   0  0  0  0  0  0  0  0  0  0  0  0
  -11.6383    6.8511   -4.5124 C   0  0  0  0  0  0  0  0  0  0  0  0
  -10.6213    7.6569   -5.0244 C   0  0  0  0  0  0  0  0  0  0  0  0
   -9.3551    7.1194   -5.2553 C   0  0  0  0  0  0  0  0  0  0  0  0
   -9.1058    5.7761   -4.9742 C   0  0  0  0  0  0  0  0  0  0  0  0
  -10.8635    8.9618   -5.2975 O   0  0  0  0  0  0  0  0  0  0  0  0
   -9.7669    9.5901   -5.7861 C   0  0  0  0  0  0  0  0  0  0  0  0
   -9.0821   10.5133   -4.9959 C   0  0  0  0  0  0  0  0  0  0  0  0
   -7.9534   11.1602   -5.4990 C   0  0  0  0  0  0  0  0  0  0  0  0
   -7.5094   10.8838   -6.7921 C   0  0  0  0  0  0  0  0  0  0  0  0
   -8.1942    9.9606   -7.5822 C   0  0  0  0  0  0  0  0  0  0  0  0
   -9.3230    9.3138   -7.0792 C   0  0  0  0  0  0  0  0  0  0  0  0
   -6.0609   11.7140   -7.4375 S   0  0  0  0  0  0  0  0  0  0  0  0
   -5.5329   12.6171   -6.4335 O   0  0  0  0  0  0  0  0  0  0  0  0
   -5.0526   10.7296   -7.7792 O   0  0  0  0  0  0  0  0  0  0  0  0
   -6.5086   12.6440   -8.9000 C   0  0  0  0  0  0  0  0  0  0  0  0
   -5.5395   13.3788   -9.5830 C   0  0  0  0  0  0  0  0  0  0  0  0
   -5.8884   14.1036  -10.7225 C   0  0  0  0  0  0  0  0  0  0  0  0
   -7.2064   14.0935  -11.1790 C   0  0  0  0  0  0  0  0  0  0  0  0
   -8.1755   13.3587  -10.4961 C   0  0  0  0  0  0  0  0  0  0  0  0
   -7.8265   12.6340   -9.3565 C   0  0  0  0  0  0  0  0  0  0  0  0
   -7.5808   14.8714  -12.4020 C   0  0  0  0  0  0  0  0  0  0  0  0
   11.7948   -6.2385    9.4170 H   0  0  0  0  0  0  0  0  0  0  0  0
   10.4587   -7.2738    8.7499 H   0  0  0  0  0  0  0  0  0  0  0  0
   10.4554   -6.8055   10.5067 H   0  0  0  0  0  0  0  0  0  0  0  0
   12.6368  -10.6509   10.5944 H   0  0  0  0  0  0  0  0  0  0  0  0
   11.1194  -12.5652   11.1019 H   0  0  0  0  0  0  0  0  0  0  0  0
    7.6894  -10.0269   10.4205 H   0  0  0  0  0  0  0  0  0  0  0  0
    9.2068   -8.1127    9.9126 H   0  0  0  0  0  0  0  0  0  0  0  0
    8.5577  -14.6450   11.6521 H   0  0  0  0  0  0  0  0  0  0  0  0
    9.8774  -14.0488   10.5543 H   0  0  0  0  0  0  0  0  0  0  0  0
    9.8754  -13.5808   12.3111 H   0  0  0  0  0  0  0  0  0  0  0  0
    6.8474  -13.0583   12.5154 H   0  0  0  0  0  0  0  0  0  0  0  0
    6.9174  -11.3040   12.0468 H   0  0  0  0  0  0  0  0  0  0  0  0
    8.1664  -11.9949   13.1729 H   0  0  0  0  0  0  0  0  0  0  0  0
    9.2224  -13.2544    8.6023 H   0  0  0  0  0  0  0  0  0  0  0  0
    7.7862  -13.7255    6.6174 H   0  0  0  0  0  0  0  0  0  0  0  0
    4.2567  -12.9536    8.9879 H   0  0  0  0  0  0  0  0  0  0  0  0
    5.6930  -12.4823   10.9728 H   0  0  0  0  0  0  0  0  0  0  0  0
    3.4637  -15.6265    6.8225 H   0  0  0  0  0  0  0  0  0  0  0  0
    1.0362  -15.3897    7.3476 H   0  0  0  0  0  0  0  0  0  0  0  0
    1.4987  -11.0982    7.5507 H   0  0  0  0  0  0  0  0  0  0  0  0
    3.9261  -11.3349    7.0253 H   0  0  0  0  0  0  0  0  0  0  0  0
    0.0392  -12.5886    5.0700 H   0  0  0  0  0  0  0  0  0  0  0  0
   -1.0604  -11.2023    3.3111 H   0  0  0  0  0  0  0  0  0  0  0  0
   -4.0822   -9.9931    6.1534 H   0  0  0  0  0  0  0  0  0  0  0  0
   -2.9824  -11.3791    7.9124 H   0  0  0  0  0  0  0  0  0  0  0  0
   -5.7100  -10.3953    3.0469 H   0  0  0  0  0  0  0  0  0  0  0  0
   -7.7396   -9.2284    3.9093 H   0  0  0  0  0  0  0  0  0  0  0  0
   -5.2309   -6.5589    6.2012 H   0  0  0  0  0  0  0  0  0  0  0  0
   -3.2013   -7.7256    5.3385 H   0  0  0  0  0  0  0  0  0  0  0  0
   -9.9754   -7.2533    5.4228 H   0  0  0  0  0  0  0  0  0  0  0  0
   -9.0416   -7.6961    3.9281 H   0  0  0  0  0  0  0  0  0  0  0  0
   -9.1042   -8.8459    5.3351 H   0  0  0  0  0  0  0  0  0  0  0  0
   -8.7668   -6.7108    7.5283 H   0  0  0  0  0  0  0  0  0  0  0  0
   -6.9507   -6.7560    7.5705 H   0  0  0  0  0  0  0  0  0  0  0  0
   -7.8960   -8.3034    7.4384 H   0  0  0  0  0  0  0  0  0  0  0  0
   -9.6599   -5.2045    6.1810 H   0  0  0  0  0  0  0  0  0  0  0  0
   -9.5832   -2.8014    5.5149 H   0  0  0  0  0  0  0  0  0  0  0  0
   -5.8078   -3.4737    3.5232 H   0  0  0  0  0  0  0  0  0  0  0  0
   -5.8846   -5.8770    4.1890 H   0  0  0  0  0  0  0  0  0  0  0  0
   -5.6168   -0.2799    5.0150 H   0  0  0  0  0  0  0  0  0  0  0  0
   -3.5672    0.2606    3.6992 H   0  0  0  0  0  0  0  0  0  0  0  0
   -5.1634   -1.9101    0.3210 H   0  0  0  0  0  0  0  0  0  0  0  0
   -7.2132   -2.4503    1.6367 H   0  0  0  0  0  0  0  0  0  0  0  0
   -1.1904    0.7004   -1.1780 H   0  0  0  0  0  0  0  0  0  0  0  0
   -1.8266    1.9952   -3.2134 H   0  0  0  0  0  0  0  0  0  0  0  0
   -5.9813    1.7946   -2.0425 H   0  0  0  0  0  0  0  0  0  0  0  0
   -5.3450    0.5000   -0.0068 H   0  0  0  0  0  0  0  0  0  0  0  0
   -5.8984    1.4808   -5.5577 H   0  0  0  0  0  0  0  0  0  0  0  0
   -8.3608    1.8588   -5.6936 H   0  0  0  0  0  0  0  0  0  0  0  0
   -8.1038    4.7006   -2.4486 H   0  0  0  0  0  0  0  0  0  0  0  0
   -5.6413    4.3230   -2.3129 H   0  0  0  0  0  0  0  0  0  0  0  0
  -11.5409    2.8300   -5.3269 H   0  0  0  0  0  0  0  0  0  0  0  0
   -9.9720    2.9316   -6.2382 H   0  0  0  0  0  0  0  0  0  0  0  0
  -10.2434    1.5896   -5.0421 H   0  0  0  0  0  0  0  0  0  0  0  0
  -11.5975    3.3272   -2.8902 H   0  0  0  0  0  0  0  0  0  0  0  0
  -10.0702    3.7933   -2.0227 H   0  0  0  0  0  0  0  0  0  0  0  0
  -10.2994    2.0871   -2.6074 H   0  0  0  0  0  0  0  0  0  0  0  0
  -12.1909    4.8724   -3.8274 H   0  0  0  0  0  0  0  0  0  0  0  0
  -12.6368    7.2750   -4.3304 H   0  0  0  0  0  0  0  0  0  0  0  0
   -8.5531    7.7549   -5.6590 H   0  0  0  0  0  0  0  0  0  0  0  0
   -8.1072    5.3522   -5.1563 H   0  0  0  0  0  0  0  0  0  0  0  0
   -9.4322   10.7311   -3.9761 H   0  0  0  0  0  0  0  0  0  0  0  0
   -7.4133   11.8883   -4.8759 H   0  0  0  0  0  0  0  0  0  0  0  0
   -7.8440    9.7427   -8.6019 H   0  0  0  0  0  0  0  0  0  0  0  0
   -9.8631    8.5857   -7.7023 H   0  0  0  0  0  0  0  0  0  0  0  0
   -4.5001   13.3866   -9.2230 H   0  0  0  0  0  0  0  0  0  0  0  0
   -5.1242   14.6831  -11.2611 H   0  0  0  0  0  0  0  0  0  0  0  0
   -9.2148   13.3508  -10.8561 H   0  0  0  0  0  0  0  0  0  0  0  0
   -8.5908   12.0545   -8.8178 H   0  0  0  0  0  0  0  0  0  0  0  0
   -6.6806   15.3879  -12.8039 H   0  0  0  0  0  0  0  0  0  0  0  0
   -7.9850   14.1778  -13.1729 H   0  0  0  0  0  0  0  0  0  0  0  0
   -8.3549   15.6265  -12.1386 H   0  0  0  0  0  0  0  0  0  0  0  0
  1  2  1  0      
  1 99  1  0      
  1100  1  0      
  1101  1  0      
  2  3  1  0      
  3  4  1  0      
  3  8  2  0      
  4  5  2  0      
  4102  1  0      
  5  6  1  0      
  5103  1  0      
  6  7  2  0      
  6  9  1  0      
  7  8  1  0      
  7104  1  0      
  8105  1  0      
  9 10  1  0      
  9 11  1  0      
  9 12  1  0      
 10106  1  0      
 10107  1  0      
 10108  1  0      
 11109  1  0      
 11110  1  0      
 11111  1  0      
 12 13  1  0      
 12 17  2  0      
 13 14  2  0      
 13112  1  0      
 14 15  1  0      
 14113  1  0      
 15 16  2  0      
 15 18  1  0      
 16 17  1  0      
 16114  1  0      
 17115  1  0      
 18 19  1  0      
 19 20  1  0      
 19 24  2  0      
 20 21  2  0      
 20116  1  0      
 21 22  1  0      
 21117  1  0      
 22 23  2  0      
 22 25  1  0      
 23 24  1  0      
 23118  1  0      
 24119  1  0      
 25 26  2  0      
 25 27  2  0      
 25 28  1  0      
 28 29  1  0      
 28 33  2  0      
 29 30  2  0      
 29120  1  0      
 30 31  1  0      
 30121  1  0      
 31 32  2  0      
 31 34  1  0      
 32 33  1  0      
 32122  1  0      
 33123  1  0      
 34 35  1  0      
 35 36  1  0      
 35 40  2  0      
 36 37  2  0      
 36124  1  0      
 37 38  1  0      
 37125  1  0      
 38 39  2  0      
 38 41  1  0      
 39 40  1  0      
 39126  1  0      
 40127  1  0      
 41 42  1  0      
 41 43  1  0      
 41 44  1  0      
 42128  1  0      
 42129  1  0      
 42130  1  0      
 43131  1  0      
 43132  1  0      
 43133  1  0      
 44 45  1  0      
 44 49  2  0      
 45 46  2  0      
 45134  1  0      
 46 47  1  0      
 46135  1  0      
 47 48  2  0      
 47 50  1  0      
 48 49  1  0      
 48136  1  0      
 49137  1  0      
 50 51  1  0      
 51 52  1  0      
 51 56  2  0      
 52 53  2  0      
 52138  1  0      
 53 54  1  0      
 53139  1  0      
 54 55  2  0      
 54 57  1  0      
 55 56  1  0      
 55140  1  0      
 56141  1  0      
 57 58  2  0      
 57 59  2  0      
 57 60  1  0      
 60 61  1  0      
 60 65  2  0      
 61 62  2  0      
 61142  1  0      
 62 63  1  0      
 62143  1  0      
 63 64  2  0      
 63 66  1  0      
 64 65  1  0      
 64144  1  0      
 65145  1  0      
 66 67  1  0      
 67 68  1  0      
 67 72  2  0      
 68 69  2  0      
 68146  1  0      
 69 70  1  0      
 69147  1  0      
 70 71  2  0      
 70 73  1  0      
 71 72  1  0      
 71148  1  0      
 72149  1  0      
 73 74  1  0      
 73 75  1  0      
 73 76  1  0      
 74150  1  0      
 74151  1  0      
 74152  1  0      
 75153  1  0      
 75154  1  0      
 75155  1  0      
 76 77  1  0      
 76 81  2  0      
 77 78  2  0      
 77156  1  0      
 78 79  1  0      
 78157  1  0      
 79 80  2  0      
 79 82  1  0      
 80 81  1  0      
 80158  1  0      
 81159  1  0      
 82 83  1  0      
 83 84  1  0      
 83 88  2  0      
 84 85  2  0      
 84160  1  0      
 85 86  1  0      
 85161  1  0      
 86 87  2  0      
 86 89  1  0      
 87 88  1  0      
 87162  1  0      
 88163  1  0      
 89 90  2  0      
 89 91  2  0      
 89 92  1  0      
 92 93  1  0      
 92 97  2  0      
 93 94  2  0      
 93164  1  0      
 94 95  1  0      
 94165  1  0      
 95 96  2  0      
 95 98  1  0      
 96 97  1  0      
 96166  1  0      
 97167  1  0      
 98168  1  0      
 98169  1  0      
 98170  1  0      
M  END
$$$$
