Fragment
  Chem3D Core 21.007272619293D

 80 79  0  0  0  0  0  0  0  0999 V2000
    6.3144    2.0206   -0.5535 C   0  0  0  0  0  0  0  0  0  0  0  0
    5.1002    1.3198   -0.5535 O   0  0  0  0  0  0  0  0  0  0  0  0
    5.4201   -0.0452   -0.5535 C   0  0  0  0  0  0  0  0  0  0  0  0
    4.1384   -0.8678   -0.5535 C   0  0  0  0  0  0  0  0  0  0  0  0
    4.4860   -2.3506   -0.5535 C   0  0  0  0  0  0  0  0  0  0  0  0
    3.2043   -3.1733   -0.5535 C   0  0  0  0  0  0  0  0  0  0  0  0
    3.5243   -4.5383   -0.5535 O   0  0  0  0  0  0  0  0  0  0  0  0
    2.4033   -5.2688   -0.5535 C   0  0  0  0  0  0  0  0  0  0  0  0
    2.4685   -6.4751   -0.5535 O   0  0  0  0  0  0  0  0  0  0  0  0
    1.0577   -4.5859   -0.5535 C   0  0  0  0  0  0  0  0  0  0  0  0
   -0.0454   -5.6361   -0.5535 C   0  0  0  0  0  0  0  0  0  0  0  0
   -1.3910   -4.9532   -0.5535 C   0  0  0  0  0  0  0  0  0  0  0  0
   -2.4031   -5.6128   -0.5535 O   0  0  0  0  0  0  0  0  0  0  0  0
   -1.4632   -3.6171   -0.5535 O   0  0  0  0  0  0  0  0  0  0  0  0
   -2.8053   -3.2118   -0.5535 C   0  0  0  0  0  0  0  0  0  0  0  0
   -2.8769   -1.6904   -0.5535 C   0  0  0  0  0  0  0  0  0  0  0  0
   -4.3348   -1.2501   -0.5535 C   0  0  0  0  0  0  0  0  0  0  0  0
   -4.4064    0.2713   -0.5535 C   0  0  0  0  0  0  0  0  0  0  0  0
   -5.7485    0.6766   -0.5535 O   0  0  0  0  0  0  0  0  0  0  0  0
   -5.8207    2.0127   -0.5535 C   0  0  0  0  0  0  0  0  0  0  0  0
   -6.8979    2.5594   -0.5535 O   0  0  0  0  0  0  0  0  0  0  0  0
   -4.5564    2.8366   -0.5535 C   0  0  0  0  0  0  0  0  0  0  0  0
   -4.9144    4.3170   -0.5535 C   0  0  0  0  0  0  0  0  0  0  0  0
   -3.6502    5.1409   -0.5535 C   0  0  0  0  0  0  0  0  0  0  0  0
   -3.7153    6.3471   -0.5535 O   0  0  0  0  0  0  0  0  0  0  0  0
   -2.4570    4.5354   -0.5535 O   0  0  0  0  0  0  0  0  0  0  0  0
   -1.4349    5.4950   -0.5535 C   0  0  0  0  0  0  0  0  0  0  0  0
   -0.0816    4.7963   -0.5535 C   0  0  0  0  0  0  0  0  0  0  0  0
    1.0287    5.8387   -0.5535 C   0  0  0  0  0  0  0  0  0  0  0  0
    2.3820    5.1400   -0.5535 C   0  0  0  0  0  0  0  0  0  0  0  0
    3.4042    6.0996   -0.5535 O   0  0  0  0  0  0  0  0  0  0  0  0
    4.5973    5.4941   -0.5535 C   0  0  0  0  0  0  0  0  0  0  0  0
    5.6094    6.1537   -0.5535 O   0  0  0  0  0  0  0  0  0  0  0  0
    4.6787    3.9873   -0.5535 C   0  0  0  0  0  0  0  0  0  0  0  0
    3.2726    3.4022   -0.5535 C   0  0  0  0  0  0  0  0  0  0  0  0
    3.3540    1.8954   -0.5535 C   0  0  0  0  0  0  0  0  0  0  0  0
    3.3866    1.2923   -1.5997 O   0  0  0  0  0  0  0  0  0  0  0  0
    3.3947    1.1420    0.7533 C   0  0  0  0  0  0  0  0  0  0  0  0
    6.1117    3.1150   -0.5535 H   0  0  0  0  0  0  0  0  0  0  0  0
    6.8973    1.7518    0.3558 H   0  0  0  0  0  0  0  0  0  0  0  0
    6.8979    1.7516   -1.4623 H   0  0  0  0  0  0  0  0  0  0  0  0
    6.0151   -0.2863   -1.4628 H   0  0  0  0  0  0  0  0  0  0  0  0
    6.0156   -0.2865    0.3553 H   0  0  0  0  0  0  0  0  0  0  0  0
    3.5435   -0.6268    0.3558 H   0  0  0  0  0  0  0  0  0  0  0  0
    3.5429   -0.6266   -1.4623 H   0  0  0  0  0  0  0  0  0  0  0  0
    5.0809   -2.5917   -1.4628 H   0  0  0  0  0  0  0  0  0  0  0  0
    5.0815   -2.5919    0.3553 H   0  0  0  0  0  0  0  0  0  0  0  0
    2.6094   -2.9322    0.3558 H   0  0  0  0  0  0  0  0  0  0  0  0
    2.6088   -2.9320   -1.4623 H   0  0  0  0  0  0  0  0  0  0  0  0
    0.9645   -3.9508    0.3558 H   0  0  0  0  0  0  0  0  0  0  0  0
    0.9644   -3.9502   -1.4623 H   0  0  0  0  0  0  0  0  0  0  0  0
    0.0478   -6.2712   -1.4628 H   0  0  0  0  0  0  0  0  0  0  0  0
    0.0479   -6.2718    0.3553 H   0  0  0  0  0  0  0  0  0  0  0  0
   -3.3115   -3.6064   -1.4628 H   0  0  0  0  0  0  0  0  0  0  0  0
   -3.3120   -3.6068    0.3553 H   0  0  0  0  0  0  0  0  0  0  0  0
   -2.3707   -1.2958    0.3558 H   0  0  0  0  0  0  0  0  0  0  0  0
   -2.3702   -1.2954   -1.4623 H   0  0  0  0  0  0  0  0  0  0  0  0
   -4.8410   -1.6447   -1.4628 H   0  0  0  0  0  0  0  0  0  0  0  0
   -4.8415   -1.6451    0.3553 H   0  0  0  0  0  0  0  0  0  0  0  0
   -3.9002    0.6659    0.3558 H   0  0  0  0  0  0  0  0  0  0  0  0
   -3.8997    0.6663   -1.4623 H   0  0  0  0  0  0  0  0  0  0  0  0
   -3.9599    2.5997    0.3558 H   0  0  0  0  0  0  0  0  0  0  0  0
   -3.9593    2.5995   -1.4623 H   0  0  0  0  0  0  0  0  0  0  0  0
   -5.5110    4.5538   -1.4628 H   0  0  0  0  0  0  0  0  0  0  0  0
   -5.5115    4.5541    0.3553 H   0  0  0  0  0  0  0  0  0  0  0  0
   -1.5236    6.1307   -1.4628 H   0  0  0  0  0  0  0  0  0  0  0  0
   -1.5237    6.1313    0.3553 H   0  0  0  0  0  0  0  0  0  0  0  0
    0.0071    4.1605    0.3558 H   0  0  0  0  0  0  0  0  0  0  0  0
    0.0072    4.1599   -1.4623 H   0  0  0  0  0  0  0  0  0  0  0  0
    0.9400    6.4744   -1.4628 H   0  0  0  0  0  0  0  0  0  0  0  0
    0.9400    6.4751    0.3553 H   0  0  0  0  0  0  0  0  0  0  0  0
    2.4707    4.5043    0.3558 H   0  0  0  0  0  0  0  0  0  0  0  0
    2.4708    4.5037   -1.4623 H   0  0  0  0  0  0  0  0  0  0  0  0
    5.2221    3.6457   -1.4628 H   0  0  0  0  0  0  0  0  0  0  0  0
    5.2227    3.6453    0.3553 H   0  0  0  0  0  0  0  0  0  0  0  0
    2.7292    3.7438    0.3558 H   0  0  0  0  0  0  0  0  0  0  0  0
    2.7286    3.7442   -1.4623 H   0  0  0  0  0  0  0  0  0  0  0  0
    3.3557    1.8638    1.5997 H   0  0  0  0  0  0  0  0  0  0  0  0
    2.5213    0.4547    0.8121 H   0  0  0  0  0  0  0  0  0  0  0  0
    4.3367    0.5521    0.8121 H   0  0  0  0  0  0  0  0  0  0  0  0
  1  2  1  0      
  1 39  1  0      
  1 40  1  0      
  1 41  1  0      
  2  3  1  0      
  3  4  1  0      
  3 42  1  0      
  3 43  1  0      
  4  5  1  0      
  4 44  1  0      
  4 45  1  0      
  5  6  1  0      
  5 46  1  0      
  5 47  1  0      
  6  7  1  0      
  6 48  1  0      
  6 49  1  0      
  7  8  1  0      
  8  9  2  0      
  8 10  1  0      
 10 11  1  0      
 10 50  1  0      
 10 51  1  0      
 11 12  1  0      
 11 52  1  0      
 11 53  1  0      
 12 13  2  0      
 12 14  1  0      
 14 15  1  0      
 15 16  1  0      
 15 54  1  0      
 15 55  1  0      
 16 17  1  0      
 16 56  1  0      
 16 57  1  0      
 17 18  1  0      
 17 58  1  0      
 17 59  1  0      
 18 19  1  0      
 18 60  1  0      
 18 61  1  0      
 19 20  1  0      
 20 21  2  0      
 20 22  1  0      
 22 23  1  0      
 22 62  1  0      
 22 63  1  0      
 23 24  1  0      
 23 64  1  0      
 23 65  1  0      
 24 25  2  0      
 24 26  1  0      
 26 27  1  0      
 27 28  1  0      
 27 66  1  0      
 27 67  1  0      
 28 29  1  0      
 28 68  1  0      
 28 69  1  0      
 29 30  1  0      
 29 70  1  0      
 29 71  1  0      
 30 31  1  0      
 30 72  1  0      
 30 73  1  0      
 31 32  1  0      
 32 33  2  0      
 32 34  1  0      
 34 35  1  0      
 34 74  1  0      
 34 75  1  0      
 35 36  1  0      
 35 76  1  0      
 35 77  1  0      
 36 37  2  0      
 36 38  1  0      
 38 78  1  0      
 38 79  1  0      
 38 80  1  0      
M  END
$$$$
