Fragment
  Chem3D Core 21.007272619273D

 26 25  0  0  0  0  0  0  0  0999 V2000
   -3.1363   -1.7031    0.6224 C   0  0  0  0  0  0  0  0  0  0  0  0
   -1.8174   -2.4647    0.6224 C   0  0  0  0  0  0  0  0  0  0  0  0
   -0.6592   -1.4756    0.6224 C   0  0  0  0  0  0  0  0  0  0  0  0
   -0.7530   -0.4432    2.0878 Cl  0  0  0  0  0  0  0  0  0  0  0  0
    0.8943   -2.3748    0.6235 Cl  0  0  0  0  0  0  0  0  0  0  0  0
   -0.7396   -0.6001   -0.6212 C   0  0  0  0  0  0  0  0  0  0  0  0
    0.4182    0.3893   -0.6221 C   0  0  0  0  0  0  0  0  0  0  0  0
    1.4227    0.1349   -2.0878 Cl  0  0  0  0  0  0  0  0  0  0  0  0
   -0.2273    2.0643   -0.6235 Cl  0  0  0  0  0  0  0  0  0  0  0  0
    1.2709    0.1736    0.6212 C   0  0  0  0  0  0  0  0  0  0  0  0
    2.4291    1.1627    0.6212 C   0  0  0  0  0  0  0  0  0  0  0  0
    2.3353    2.1952    2.0866 Cl  0  0  0  0  0  0  0  0  0  0  0  0
    3.9826    0.2636    0.6223 Cl  0  0  0  0  0  0  0  0  0  0  0  0
    2.3487    2.0382   -0.6224 C   0  0  0  0  0  0  0  0  0  0  0  0
   -3.9826   -2.4259    0.6224 H   0  0  0  0  0  0  0  0  0  0  0  0
   -3.1950   -1.0639    1.5317 H   0  0  0  0  0  0  0  0  0  0  0  0
   -3.1950   -1.0633   -0.2864 H   0  0  0  0  0  0  0  0  0  0  0  0
   -1.7587   -3.1039   -0.2868 H   0  0  0  0  0  0  0  0  0  0  0  0
   -1.7586   -3.1045    1.5312 H   0  0  0  0  0  0  0  0  0  0  0  0
   -0.6803   -1.2405   -1.5296 H   0  0  0  0  0  0  0  0  0  0  0  0
   -1.7033   -0.0433   -0.6210 H   0  0  0  0  0  0  0  0  0  0  0  0
    0.6481    0.3326    1.5298 H   0  0  0  0  0  0  0  0  0  0  0  0
    1.6705   -0.8652    0.6213 H   0  0  0  0  0  0  0  0  0  0  0  0
    1.4633    1.7423   -1.2285 H   0  0  0  0  0  0  0  0  0  0  0  0
    2.2503    3.1045   -0.3190 H   0  0  0  0  0  0  0  0  0  0  0  0
    3.2732    1.9077   -1.2282 H   0  0  0  0  0  0  0  0  0  0  0  0
  1  2  1  0      
  1 15  1  0      
  1 16  1  0      
  1 17  1  0      
  2  3  1  0      
  2 18  1  0      
  2 19  1  0      
  3  4  1  0      
  3  5  1  0      
  3  6  1  0      
  6  7  1  0      
  6 20  1  0      
  6 21  1  0      
  7  8  1  0      
  7  9  1  0      
  7 10  1  0      
 10 11  1  0      
 10 22  1  0      
 10 23  1  0      
 11 12  1  0      
 11 13  1  0      
 11 14  1  0      
 14 24  1  0      
 14 25  1  0      
 14 26  1  0      
M  END
$$$$
