Fragment
  Chem3D Core 21.007272619323D

 49 52  0  0  0  0  0  0  0  0999 V2000
    7.4607    4.5243   -2.6342 C   0  0  0  0  0  0  0  0  0  0  0  0
    6.2562    3.7204   -2.5612 N   0  0  0  0  0  0  0  0  0  0  0  0
    4.9503    4.0013   -3.2134 C   0  0  0  0  0  0  0  0  0  0  0  0
    4.7482    4.7093   -4.1711 O   0  0  0  0  0  0  0  0  0  0  0  0
    3.9422    3.2245   -2.4359 C   0  0  0  0  0  0  0  0  0  0  0  0
    2.5606    3.2913   -2.4700 C   0  0  0  0  0  0  0  0  0  0  0  0
    1.8391    2.4205   -1.6499 C   0  0  0  0  0  0  0  0  0  0  0  0
    2.5040    1.4992   -0.8240 C   0  0  0  0  0  0  0  0  0  0  0  0
    3.8993    1.4361   -0.8070 C   0  0  0  0  0  0  0  0  0  0  0  0
    4.6014    2.3110   -1.6170 C   0  0  0  0  0  0  0  0  0  0  0  0
    6.0730    2.4457   -1.8188 C   0  0  0  0  0  0  0  0  0  0  0  0
    6.9342    1.6804   -1.4556 O   0  0  0  0  0  0  0  0  0  0  0  0
    1.7870    0.6660   -0.0385 C   0  0  0  0  0  0  0  0  0  0  0  0
    2.3529   -0.1286    0.6740 O   0  0  0  0  0  0  0  0  0  0  0  0
    0.4192    0.7222   -0.0500 N   0  0  0  0  0  0  0  0  0  0  0  0
   -0.2945   -0.1072    0.7320 C   0  0  0  0  0  0  0  0  0  0  0  0
   -1.5080   -0.6229    0.2770 C   0  0  0  0  0  0  0  0  0  0  0  0
   -2.2482   -1.4830    1.0881 C   0  0  0  0  0  0  0  0  0  0  0  0
   -1.7750   -1.8275    2.3541 C   0  0  0  0  0  0  0  0  0  0  0  0
   -0.5615   -1.3119    2.8092 C   0  0  0  0  0  0  0  0  0  0  0  0
    0.1787   -0.4517    1.9981 C   0  0  0  0  0  0  0  0  0  0  0  0
   -2.5694   -2.7506    3.2246 C   0  0  0  0  0  0  0  0  0  0  0  0
   -3.8199   -3.1587    2.5098 C   0  0  0  0  0  0  0  0  0  0  0  0
   -5.0617   -2.9785    3.1189 C   0  0  0  0  0  0  0  0  0  0  0  0
   -6.2268   -3.3589    2.4529 C   0  0  0  0  0  0  0  0  0  0  0  0
   -6.1500   -3.9194    1.1780 C   0  0  0  0  0  0  0  0  0  0  0  0
   -4.9082   -4.0995    0.5689 C   0  0  0  0  0  0  0  0  0  0  0  0
   -3.7431   -3.7191    1.2349 C   0  0  0  0  0  0  0  0  0  0  0  0
   -7.4004   -4.3276    0.4633 C   0  0  0  0  0  0  0  0  0  0  0  0
    7.2727    5.4184   -3.2698 H   0  0  0  0  0  0  0  0  0  0  0  0
    7.7502    4.8516   -1.6106 H   0  0  0  0  0  0  0  0  0  0  0  0
    8.2834    3.9201   -3.0780 H   0  0  0  0  0  0  0  0  0  0  0  0
    2.0450    4.0096   -3.1243 H   0  0  0  0  0  0  0  0  0  0  0  0
    0.7397    2.4566   -1.6509 H   0  0  0  0  0  0  0  0  0  0  0  0
    4.4249    0.7114   -0.1678 H   0  0  0  0  0  0  0  0  0  0  0  0
   -0.0548    1.3879   -0.6469 H   0  0  0  0  0  0  0  0  0  0  0  0
   -1.8812   -0.3514   -0.7215 H   0  0  0  0  0  0  0  0  0  0  0  0
   -3.2053   -1.8897    0.7293 H   0  0  0  0  0  0  0  0  0  0  0  0
   -0.1883   -1.5836    3.8076 H   0  0  0  0  0  0  0  0  0  0  0  0
    1.1357   -0.0449    2.3569 H   0  0  0  0  0  0  0  0  0  0  0  0
   -1.9632   -3.6548    3.4561 H   0  0  0  0  0  0  0  0  0  0  0  0
   -2.8366   -2.2295    4.1711 H   0  0  0  0  0  0  0  0  0  0  0  0
   -5.1222   -2.5365    4.1243 H   0  0  0  0  0  0  0  0  0  0  0  0
   -7.2061   -3.2170    2.9332 H   0  0  0  0  0  0  0  0  0  0  0  0
   -4.8477   -4.5414   -0.4366 H   0  0  0  0  0  0  0  0  0  0  0  0
   -2.7637   -3.8612    0.7546 H   0  0  0  0  0  0  0  0  0  0  0  0
   -8.2834   -4.1073    1.1041 H   0  0  0  0  0  0  0  0  0  0  0  0
   -7.4841   -3.7601   -0.4905 H   0  0  0  0  0  0  0  0  0  0  0  0
   -7.3635   -5.4184    0.2450 H   0  0  0  0  0  0  0  0  0  0  0  0
  1  2  1  0      
  1 30  1  0      
  1 31  1  0      
  1 32  1  0      
  2  3  1  0      
  2 11  1  0      
  3  4  2  0      
  3  5  1  0      
  5  6  1  0      
  5 10  2  0      
  6  7  2  0      
  6 33  1  0      
  7  8  1  0      
  7 34  1  0      
  8  9  2  0      
  8 13  1  0      
  9 10  1  0      
  9 35  1  0      
 10 11  1  0      
 11 12  2  0      
 13 14  2  0      
 13 15  1  0      
 15 16  1  0      
 15 36  1  0      
 16 17  1  0      
 16 21  2  0      
 17 18  2  0      
 17 37  1  0      
 18 19  1  0      
 18 38  1  0      
 19 20  2  0      
 19 22  1  0      
 20 21  1  0      
 20 39  1  0      
 21 40  1  0      
 22 23  1  0      
 22 41  1  0      
 22 42  1  0      
 23 24  1  0      
 23 28  2  0      
 24 25  2  0      
 24 43  1  0      
 25 26  1  0      
 25 44  1  0      
 26 27  2  0      
 26 29  1  0      
 27 28  1  0      
 27 45  1  0      
 28 46  1  0      
 29 47  1  0      
 29 48  1  0      
 29 49  1  0      
M  END
$$$$
