Fragment
  Chem3D Core 21.007272619273D

 44 43  0  0  0  0  0  0  0  0999 V2000
    3.8682   -1.0348   -2.3819 C   0  0  0  0  0  0  0  0  0  0  0  0
    2.5492   -1.7964   -2.3819 C   0  0  0  0  0  0  0  0  0  0  0  0
    1.3911   -0.8073   -2.3819 C   0  0  0  0  0  0  0  0  0  0  0  0
    1.4643   -0.0009   -3.5264 O   0  0  0  0  0  0  0  0  0  0  0  0
    0.4499    0.8715   -3.5345 C   0  0  0  0  0  0  0  0  0  0  0  0
    0.3092    1.8545   -4.6708 C   0  0  0  0  0  0  0  0  0  0  0  0
   -0.3532    0.8724   -2.6322 O   0  0  0  0  0  0  0  0  0  0  0  0
    0.0729   -1.5702   -2.3828 C   0  0  0  0  0  0  0  0  0  0  0  0
   -0.7271   -1.2042   -1.1397 C   0  0  0  0  0  0  0  0  0  0  0  0
   -2.0975   -1.3019   -1.4195 O   0  0  0  0  0  0  0  0  0  0  0  0
   -2.8083   -0.9818   -0.3320 C   0  0  0  0  0  0  0  0  0  0  0  0
   -4.3162   -1.0113   -0.3807 C   0  0  0  0  0  0  0  0  0  0  0  0
   -2.2429   -0.6692    0.6887 O   0  0  0  0  0  0  0  0  0  0  0  0
   -0.3714   -2.1597   -0.0083 C   0  0  0  0  0  0  0  0  0  0  0  0
    0.1988   -1.3709    1.1630 C   0  0  0  0  0  0  0  0  0  0  0  0
   -0.1021   -2.0311    2.3627 O   0  0  0  0  0  0  0  0  0  0  0  0
    0.3956   -1.3445    3.3976 C   0  0  0  0  0  0  0  0  0  0  0  0
    0.2019   -1.8546    4.8046 C   0  0  0  0  0  0  0  0  0  0  0  0
    0.9998   -0.3162    3.2058 O   0  0  0  0  0  0  0  0  0  0  0  0
    1.7101   -1.2591    1.0112 C   0  0  0  0  0  0  0  0  0  0  0  0
    4.7145   -1.7576   -2.3819 H   0  0  0  0  0  0  0  0  0  0  0  0
    3.9269   -0.3956   -3.2911 H   0  0  0  0  0  0  0  0  0  0  0  0
    3.9269   -0.3950   -1.4731 H   0  0  0  0  0  0  0  0  0  0  0  0
    2.4905   -2.4356   -1.4726 H   0  0  0  0  0  0  0  0  0  0  0  0
    2.4905   -2.4362   -3.2907 H   0  0  0  0  0  0  0  0  0  0  0  0
    1.4499   -0.1675   -1.4731 H   0  0  0  0  0  0  0  0  0  0  0  0
    1.1365    1.7011   -5.3993 H   0  0  0  0  0  0  0  0  0  0  0  0
   -0.6674    1.6945   -5.1801 H   0  0  0  0  0  0  0  0  0  0  0  0
    0.3546    2.8922   -4.2712 H   0  0  0  0  0  0  0  0  0  0  0  0
   -0.5105   -1.3007   -3.2915 H   0  0  0  0  0  0  0  0  0  0  0  0
    0.2777   -2.6642   -2.3832 H   0  0  0  0  0  0  0  0  0  0  0  0
   -0.4841   -0.1614   -0.8359 H   0  0  0  0  0  0  0  0  0  0  0  0
   -4.6492   -1.3202   -1.3968 H   0  0  0  0  0  0  0  0  0  0  0  0
   -4.6970   -1.7385    0.3709 H   0  0  0  0  0  0  0  0  0  0  0  0
   -4.7145    0.0025   -0.1522 H   0  0  0  0  0  0  0  0  0  0  0  0
   -1.2863   -2.7017    0.3204 H   0  0  0  0  0  0  0  0  0  0  0  0
    0.3864   -2.8922   -0.3661 H   0  0  0  0  0  0  0  0  0  0  0  0
   -0.2498   -0.3524    1.1777 H   0  0  0  0  0  0  0  0  0  0  0  0
   -0.3740   -2.8066    4.7786 H   0  0  0  0  0  0  0  0  0  0  0  0
    1.1952   -2.0352    5.2731 H   0  0  0  0  0  0  0  0  0  0  0  0
   -0.3579   -1.0986    5.3993 H   0  0  0  0  0  0  0  0  0  0  0  0
    2.1279   -0.6828    1.8667 H   0  0  0  0  0  0  0  0  0  0  0  0
    1.9490   -0.7344    0.0591 H   0  0  0  0  0  0  0  0  0  0  0  0
    2.1577   -2.2781    0.9966 H   0  0  0  0  0  0  0  0  0  0  0  0
  1  2  1  0      
  1 21  1  0      
  1 22  1  0      
  1 23  1  0      
  2  3  1  0      
  2 24  1  0      
  2 25  1  0      
  3  4  1  0      
  3  8  1  0      
  3 26  1  0      
  4  5  1  0      
  5  6  1  0      
  5  7  2  0      
  6 27  1  0      
  6 28  1  0      
  6 29  1  0      
  8  9  1  0      
  8 30  1  0      
  8 31  1  0      
  9 10  1  0      
  9 14  1  0      
  9 32  1  0      
 10 11  1  0      
 11 12  1  0      
 11 13  2  0      
 12 33  1  0      
 12 34  1  0      
 12 35  1  0      
 14 15  1  0      
 14 36  1  0      
 14 37  1  0      
 15 16  1  0      
 15 20  1  0      
 15 38  1  0      
 16 17  1  0      
 17 18  1  0      
 17 19  2  0      
 18 39  1  0      
 18 40  1  0      
 18 41  1  0      
 20 42  1  0      
 20 43  1  0      
 20 44  1  0      
M  END
$$$$
