Fragment
  Chem3D Core 21.007272619303D

 47 51  0  0  0  0  0  0  0  0999 V2000
   -7.3590    2.9768    1.7470 C   0  0  0  0  0  0  0  0  0  0  0  0
   -5.9813    2.7958    2.1615 N   0  0  0  0  0  0  0  0  0  0  0  0
   -5.2977    1.5106    2.4592 C   0  0  0  0  0  0  0  0  0  0  0  0
   -5.8136    0.4620    2.7649 O   0  0  0  0  0  0  0  0  0  0  0  0
   -3.8396    1.7876    2.3011 C   0  0  0  0  0  0  0  0  0  0  0  0
   -2.7797    0.8961    2.2469 C   0  0  0  0  0  0  0  0  0  0  0  0
   -1.5158    1.4510    2.1223 C   0  0  0  0  0  0  0  0  0  0  0  0
   -1.3185    2.8386    2.0729 C   0  0  0  0  0  0  0  0  0  0  0  0
   -2.3769    3.7306    2.1459 C   0  0  0  0  0  0  0  0  0  0  0  0
   -3.6423    3.1753    2.2517 C   0  0  0  0  0  0  0  0  0  0  0  0
   -4.9642    3.8575    2.3755 C   0  0  0  0  0  0  0  0  0  0  0  0
   -5.1649    5.0270    2.6020 O   0  0  0  0  0  0  0  0  0  0  0  0
    0.1451    3.1173    1.9824 C   0  0  0  0  0  0  0  0  0  0  0  0
    0.6991    4.1775    2.1509 O   0  0  0  0  0  0  0  0  0  0  0  0
    0.7773    1.8166    1.6414 N   0  0  0  0  0  0  0  0  0  0  0  0
   -0.1885    0.7704    2.0660 C   0  0  0  0  0  0  0  0  0  0  0  0
    0.0502   -0.3876    2.3136 O   0  0  0  0  0  0  0  0  0  0  0  0
    1.9074    1.6367    1.0999 C   0  0  0  0  0  0  0  0  0  0  0  0
    2.6999    2.7327    0.7591 C   0  0  0  0  0  0  0  0  0  0  0  0
    3.9450    2.5344    0.1624 C   0  0  0  0  0  0  0  0  0  0  0  0
    4.3976    1.2401   -0.0932 C   0  0  0  0  0  0  0  0  0  0  0  0
    3.6052    0.1441    0.2477 C   0  0  0  0  0  0  0  0  0  0  0  0
    2.3600    0.3424    0.8443 C   0  0  0  0  0  0  0  0  0  0  0  0
    5.6071    1.0475   -0.6728 O   0  0  0  0  0  0  0  0  0  0  0  0
    5.8836   -0.2677   -0.8456 C   0  0  0  0  0  0  0  0  0  0  0  0
    6.8464   -0.8883   -0.0499 C   0  0  0  0  0  0  0  0  0  0  0  0
    7.1310   -2.2422   -0.2279 C   0  0  0  0  0  0  0  0  0  0  0  0
    6.4527   -2.9753   -1.2015 C   0  0  0  0  0  0  0  0  0  0  0  0
    5.4898   -2.3547   -1.9971 C   0  0  0  0  0  0  0  0  0  0  0  0
    5.2052   -1.0008   -1.8192 C   0  0  0  0  0  0  0  0  0  0  0  0
    6.7582   -4.4284   -1.3924 C   0  0  0  0  0  0  0  0  0  0  0  0
   -7.8595    1.9851    1.6778 H   0  0  0  0  0  0  0  0  0  0  0  0
   -7.8904    3.6088    2.4933 H   0  0  0  0  0  0  0  0  0  0  0  0
   -7.3845    3.4753    0.7522 H   0  0  0  0  0  0  0  0  0  0  0  0
   -2.9332   -0.1918    2.2998 H   0  0  0  0  0  0  0  0  0  0  0  0
   -2.2211    4.8193    2.1212 H   0  0  0  0  0  0  0  0  0  0  0  0
    2.3429    3.7535    0.9608 H   0  0  0  0  0  0  0  0  0  0  0  0
    4.5699    3.3988   -0.1065 H   0  0  0  0  0  0  0  0  0  0  0  0
    3.9622   -0.8767    0.0461 H   0  0  0  0  0  0  0  0  0  0  0  0
    1.7351   -0.5220    1.1131 H   0  0  0  0  0  0  0  0  0  0  0  0
    7.3813   -0.3102    0.7180 H   0  0  0  0  0  0  0  0  0  0  0  0
    7.8904   -2.7317    0.3996 H   0  0  0  0  0  0  0  0  0  0  0  0
    4.9548   -2.9329   -2.7649 H   0  0  0  0  0  0  0  0  0  0  0  0
    4.4459   -0.5113   -2.4467 H   0  0  0  0  0  0  0  0  0  0  0  0
    7.5467   -4.7401   -0.6715 H   0  0  0  0  0  0  0  0  0  0  0  0
    5.8367   -5.0270   -1.2154 H   0  0  0  0  0  0  0  0  0  0  0  0
    7.1180   -4.5982   -2.4319 H   0  0  0  0  0  0  0  0  0  0  0  0
  1  2  1  0      
  1 32  1  0      
  1 33  1  0      
  1 34  1  0      
  2  3  1  0      
  2 11  1  0      
  3  4  2  0      
  3  5  1  0      
  5  6  1  0      
  5 10  2  0      
  6  7  2  0      
  6 35  1  0      
  7  8  1  0      
  7 16  1  0      
  8  9  2  0      
 13  8  1  0      
  9 10  1  0      
  9 36  1  0      
 10 11  1  0      
 11 12  2  0      
 13 14  2  0      
 15 13  1  0      
 16 15  1  0      
 15 18  1  0      
 16 17  2  0      
 18 19  1  0      
 18 23  2  0      
 19 20  2  0      
 19 37  1  0      
 20 21  1  0      
 20 38  1  0      
 21 22  2  0      
 21 24  1  0      
 22 23  1  0      
 22 39  1  0      
 23 40  1  0      
 24 25  1  0      
 25 26  1  0      
 25 30  2  0      
 26 27  2  0      
 26 41  1  0      
 27 28  1  0      
 27 42  1  0      
 28 29  2  0      
 28 31  1  0      
 29 30  1  0      
 29 43  1  0      
 30 44  1  0      
 31 45  1  0      
 31 46  1  0      
 31 47  1  0      
M  END
$$$$
