Fragment
  Chem3D Core 21.007272619303D

 12 11  0  0  0  0  0  0  0  0999 V2000
   -1.0940    1.4389   -0.0000 C   0  0  0  0  0  0  0  0  0  0  0  0
    0.1202    0.7380   -0.0000 O   0  0  0  0  0  0  0  0  0  0  0  0
   -0.1997   -0.6270   -0.0000 C   0  0  0  0  0  0  0  0  0  0  0  0
    1.0820   -1.4496   -0.0000 C   0  0  0  0  0  0  0  0  0  0  0  0
   -0.8913    2.5332   -0.0000 H   0  0  0  0  0  0  0  0  0  0  0  0
   -1.6769    1.1701   -0.9093 H   0  0  0  0  0  0  0  0  0  0  0  0
   -1.6775    1.1698    0.9088 H   0  0  0  0  0  0  0  0  0  0  0  0
   -0.7946   -0.8680    0.9093 H   0  0  0  0  0  0  0  0  0  0  0  0
   -0.7952   -0.8683   -0.9088 H   0  0  0  0  0  0  0  0  0  0  0  0
    0.8280   -2.5332   -0.0000 H   0  0  0  0  0  0  0  0  0  0  0  0
    1.6769   -1.2086   -0.9093 H   0  0  0  0  0  0  0  0  0  0  0  0
    1.6775   -1.2083    0.9088 H   0  0  0  0  0  0  0  0  0  0  0  0
  1  2  1  0      
  1  5  1  0      
  1  6  1  0      
  1  7  1  0      
  2  3  1  0      
  3  4  1  0      
  3  8  1  0      
  3  9  1  0      
  4 10  1  0      
  4 11  1  0      
  4 12  1  0      
M  END
$$$$
