Fragment
  Chem3D Core 21.007272619303D

125139  0  0  0  0  0  0  0  0999 V2000
   -8.4607    9.1328   14.0384 C   0  0  0  0  0  0  0  0  0  0  0  0
   -7.0831    8.9518   14.4529 N   0  0  0  0  0  0  0  0  0  0  0  0
   -6.3995    7.6666   14.7506 C   0  0  0  0  0  0  0  0  0  0  0  0
   -6.9154    6.6180   15.0563 O   0  0  0  0  0  0  0  0  0  0  0  0
   -4.9414    7.9436   14.5925 C   0  0  0  0  0  0  0  0  0  0  0  0
   -3.8815    7.0521   14.5383 C   0  0  0  0  0  0  0  0  0  0  0  0
   -2.6176    7.6070   14.4137 C   0  0  0  0  0  0  0  0  0  0  0  0
   -2.4203    8.9946   14.3643 C   0  0  0  0  0  0  0  0  0  0  0  0
   -3.4787    9.8866   14.4373 C   0  0  0  0  0  0  0  0  0  0  0  0
   -4.7441    9.3313   14.5431 C   0  0  0  0  0  0  0  0  0  0  0  0
   -6.0660   10.0135   14.6669 C   0  0  0  0  0  0  0  0  0  0  0  0
   -6.2666   11.1830   14.8935 O   0  0  0  0  0  0  0  0  0  0  0  0
   -0.9567    9.2733   14.2738 C   0  0  0  0  0  0  0  0  0  0  0  0
   -0.4026   10.3335   14.4423 O   0  0  0  0  0  0  0  0  0  0  0  0
   -0.3245    7.9726   13.9328 N   0  0  0  0  0  0  0  0  0  0  0  0
   -1.2903    6.9264   14.3574 C   0  0  0  0  0  0  0  0  0  0  0  0
   -1.0515    5.7684   14.6050 O   0  0  0  0  0  0  0  0  0  0  0  0
    0.8057    7.7927   13.3913 C   0  0  0  0  0  0  0  0  0  0  0  0
    1.5981    8.8887   13.0505 C   0  0  0  0  0  0  0  0  0  0  0  0
    2.8432    8.6904   12.4538 C   0  0  0  0  0  0  0  0  0  0  0  0
    3.2958    7.3961   12.1982 C   0  0  0  0  0  0  0  0  0  0  0  0
    2.5035    6.3001   12.5391 C   0  0  0  0  0  0  0  0  0  0  0  0
    1.2583    6.4984   13.1357 C   0  0  0  0  0  0  0  0  0  0  0  0
    4.5054    7.2035   11.6186 O   0  0  0  0  0  0  0  0  0  0  0  0
    4.7818    5.8883   11.4458 C   0  0  0  0  0  0  0  0  0  0  0  0
    5.7447    5.2677   12.2415 C   0  0  0  0  0  0  0  0  0  0  0  0
    6.0293    3.9138   12.0635 C   0  0  0  0  0  0  0  0  0  0  0  0
    5.3509    3.1807   11.0899 C   0  0  0  0  0  0  0  0  0  0  0  0
    4.3880    3.8013   10.2943 C   0  0  0  0  0  0  0  0  0  0  0  0
    4.1035    5.1552   10.4722 C   0  0  0  0  0  0  0  0  0  0  0  0
    5.6093    1.9519   10.9284 N   0  0  0  0  0  0  0  0  0  0  0  0
    4.9016    0.8000   11.5449 C   0  0  0  0  0  0  0  0  0  0  0  0
    4.2304    0.8069   12.5492 O   0  0  0  0  0  0  0  0  0  0  0  0
    5.1944   -0.3676   10.6624 C   0  0  0  0  0  0  0  0  0  0  0  0
    4.6113   -1.6249   10.6513 C   0  0  0  0  0  0  0  0  0  0  0  0
    5.1133   -2.5270    9.7265 C   0  0  0  0  0  0  0  0  0  0  0  0
    6.1661   -2.1922    8.8626 C   0  0  0  0  0  0  0  0  0  0  0  0
    6.7618   -0.9409    8.8865 C   0  0  0  0  0  0  0  0  0  0  0  0
    6.2473   -0.0328    9.7984 C   0  0  0  0  0  0  0  0  0  0  0  0
    6.6821    1.3663   10.0837 C   0  0  0  0  0  0  0  0  0  0  0  0
    7.6937    1.9086    9.7070 O   0  0  0  0  0  0  0  0  0  0  0  0
    6.5038   -3.3815    8.0262 C   0  0  0  0  0  0  0  0  0  0  0  0
    7.4890   -3.5406    7.3456 O   0  0  0  0  0  0  0  0  0  0  0  0
    5.3732   -4.3286    8.2067 N   0  0  0  0  0  0  0  0  0  0  0  0
    4.7232   -3.9478    9.4873 C   0  0  0  0  0  0  0  0  0  0  0  0
    4.0255   -4.6421   10.1877 O   0  0  0  0  0  0  0  0  0  0  0  0
    5.0334   -5.2677    7.4287 C   0  0  0  0  0  0  0  0  0  0  0  0
    4.8109   -6.5478    7.9361 C   0  0  0  0  0  0  0  0  0  0  0  0
    4.4366   -7.5825    7.0789 C   0  0  0  0  0  0  0  0  0  0  0  0
    4.2847   -7.3371    5.7142 C   0  0  0  0  0  0  0  0  0  0  0  0
    4.5071   -6.0570    5.2068 C   0  0  0  0  0  0  0  0  0  0  0  0
    4.8815   -5.0223    6.0640 C   0  0  0  0  0  0  0  0  0  0  0  0
    3.9211   -8.3422    4.8815 O   0  0  0  0  0  0  0  0  0  0  0  0
    3.8215   -7.9255    3.5960 C   0  0  0  0  0  0  0  0  0  0  0  0
    2.5671   -7.7966    2.9999 C   0  0  0  0  0  0  0  0  0  0  0  0
    2.4647   -7.3677    1.6766 C   0  0  0  0  0  0  0  0  0  0  0  0
    3.6166   -7.0677    0.9495 C   0  0  0  0  0  0  0  0  0  0  0  0
    4.8710   -7.1965    1.5456 C   0  0  0  0  0  0  0  0  0  0  0  0
    4.9734   -7.6255    2.8690 C   0  0  0  0  0  0  0  0  0  0  0  0
    3.5235   -6.6784   -0.2516 N   0  0  0  0  0  0  0  0  0  0  0  0
    4.6390   -6.3191   -1.1650 C   0  0  0  0  0  0  0  0  0  0  0  0
    5.7573   -5.9825   -0.8559 O   0  0  0  0  0  0  0  0  0  0  0  0
    4.0875   -6.4616   -2.5446 C   0  0  0  0  0  0  0  0  0  0  0  0
    4.7556   -6.4623   -3.7590 C   0  0  0  0  0  0  0  0  0  0  0  0
    3.9685   -6.5855   -4.8931 C   0  0  0  0  0  0  0  0  0  0  0  0
    2.5717   -6.6848   -4.8172 C   0  0  0  0  0  0  0  0  0  0  0  0
    1.9022   -6.6653   -3.6037 C   0  0  0  0  0  0  0  0  0  0  0  0
    2.6906   -6.5609   -2.4686 C   0  0  0  0  0  0  0  0  0  0  0  0
    2.2766   -6.4872   -1.0364 C   0  0  0  0  0  0  0  0  0  0  0  0
    1.1619   -6.3096   -0.6059 O   0  0  0  0  0  0  0  0  0  0  0  0
    2.0151   -6.7597   -6.2002 C   0  0  0  0  0  0  0  0  0  0  0  0
    0.8618   -6.6222   -6.5325 O   0  0  0  0  0  0  0  0  0  0  0  0
    3.1777   -7.0389   -7.0823 N   0  0  0  0  0  0  0  0  0  0  0  0
    4.3776   -6.5917   -6.3287 C   0  0  0  0  0  0  0  0  0  0  0  0
    5.4573   -6.2954   -6.7823 O   0  0  0  0  0  0  0  0  0  0  0  0
    3.1514   -7.5526   -8.2391 C   0  0  0  0  0  0  0  0  0  0  0  0
    1.9337   -7.9211   -8.8109 C   0  0  0  0  0  0  0  0  0  0  0  0
    1.9048   -8.4872  -10.0854 C   0  0  0  0  0  0  0  0  0  0  0  0
    3.0934   -8.6847  -10.7880 C   0  0  0  0  0  0  0  0  0  0  0  0
    4.3110   -8.3160  -10.2162 C   0  0  0  0  0  0  0  0  0  0  0  0
    4.3400   -7.7500   -8.9417 C   0  0  0  0  0  0  0  0  0  0  0  0
    3.0652   -9.2346  -12.0261 O   0  0  0  0  0  0  0  0  0  0  0  0
    4.3060   -9.3515  -12.5579 C   0  0  0  0  0  0  0  0  0  0  0  0
    4.6984   -8.5153  -13.6030 C   0  0  0  0  0  0  0  0  0  0  0  0
    5.9757   -8.6358  -14.1505 C   0  0  0  0  0  0  0  0  0  0  0  0
    6.8604   -9.5925  -13.6529 C   0  0  0  0  0  0  0  0  0  0  0  0
    6.4679  -10.4286  -12.6077 C   0  0  0  0  0  0  0  0  0  0  0  0
    5.1907  -10.3082  -12.0603 C   0  0  0  0  0  0  0  0  0  0  0  0
    8.2311   -9.7217  -14.2405 C   0  0  0  0  0  0  0  0  0  0  0  0
   -8.9612    8.1411   13.9692 H   0  0  0  0  0  0  0  0  0  0  0  0
   -8.9922    9.7648   14.7847 H   0  0  0  0  0  0  0  0  0  0  0  0
   -8.4862    9.6313   13.0436 H   0  0  0  0  0  0  0  0  0  0  0  0
   -4.0350    5.9642   14.5913 H   0  0  0  0  0  0  0  0  0  0  0  0
   -3.3229   10.9753   14.4126 H   0  0  0  0  0  0  0  0  0  0  0  0
    1.2412    9.9095   13.2522 H   0  0  0  0  0  0  0  0  0  0  0  0
    3.4682    9.5548   12.1849 H   0  0  0  0  0  0  0  0  0  0  0  0
    2.8605    5.2793   12.3375 H   0  0  0  0  0  0  0  0  0  0  0  0
    0.6333    5.6340   13.4045 H   0  0  0  0  0  0  0  0  0  0  0  0
    6.2795    5.8458   13.0094 H   0  0  0  0  0  0  0  0  0  0  0  0
    6.7887    3.4243   12.6910 H   0  0  0  0  0  0  0  0  0  0  0  0
    3.8531    3.2231    9.5265 H   0  0  0  0  0  0  0  0  0  0  0  0
    3.3441    5.6447    9.8447 H   0  0  0  0  0  0  0  0  0  0  0  0
    3.7950   -1.8921   11.3385 H   0  0  0  0  0  0  0  0  0  0  0  0
    7.5968   -0.6828    8.2186 H   0  0  0  0  0  0  0  0  0  0  0  0
    4.9306   -6.7413    9.0123 H   0  0  0  0  0  0  0  0  0  0  0  0
    4.2613   -8.5920    7.4790 H   0  0  0  0  0  0  0  0  0  0  0  0
    4.3872   -5.8635    4.1306 H   0  0  0  0  0  0  0  0  0  0  0  0
    5.0569   -4.0128    5.6639 H   0  0  0  0  0  0  0  0  0  0  0  0
    1.6587   -8.0331    3.5733 H   0  0  0  0  0  0  0  0  0  0  0  0
    1.4755   -7.2661    1.2063 H   0  0  0  0  0  0  0  0  0  0  0  0
    5.7794   -6.9598    0.9722 H   0  0  0  0  0  0  0  0  0  0  0  0
    5.9627   -7.7271    3.3391 H   0  0  0  0  0  0  0  0  0  0  0  0
    5.8500   -6.3702   -3.8193 H   0  0  0  0  0  0  0  0  0  0  0  0
    0.8056   -6.7291   -3.5448 H   0  0  0  0  0  0  0  0  0  0  0  0
    0.9963   -7.7653   -8.2568 H   0  0  0  0  0  0  0  0  0  0  0  0
    0.9445   -8.7780  -10.5363 H   0  0  0  0  0  0  0  0  0  0  0  0
    5.2484   -8.4717  -10.7704 H   0  0  0  0  0  0  0  0  0  0  0  0
    5.3003   -7.4593   -8.4907 H   0  0  0  0  0  0  0  0  0  0  0  0
    4.0007   -7.7608  -13.9953 H   0  0  0  0  0  0  0  0  0  0  0  0
    6.2852   -7.9764  -14.9747 H   0  0  0  0  0  0  0  0  0  0  0  0
    7.1657  -11.1830  -12.2153 H   0  0  0  0  0  0  0  0  0  0  0  0
    4.8811  -10.9676  -11.2361 H   0  0  0  0  0  0  0  0  0  0  0  0
    8.3575   -8.9753  -15.0563 H   0  0  0  0  0  0  0  0  0  0  0  0
    8.9922   -9.5383  -13.4493 H   0  0  0  0  0  0  0  0  0  0  0  0
    8.3627  -10.7473  -14.6525 H   0  0  0  0  0  0  0  0  0  0  0  0
  1  2  1  0      
  1 90  1  0      
  1 91  1  0      
  1 92  1  0      
  2  3  1  0      
  2 11  1  0      
  3  4  2  0      
  3  5  1  0      
  5  6  1  0      
  5 10  2  0      
  6  7  2  0      
  6 93  1  0      
  7  8  1  0      
  7 16  1  0      
  8  9  2  0      
 13  8  1  0      
  9 10  1  0      
  9 94  1  0      
 10 11  1  0      
 11 12  2  0      
 13 14  2  0      
 15 13  1  0      
 16 15  1  0      
 15 18  1  0      
 16 17  2  0      
 18 19  1  0      
 18 23  2  0      
 19 20  2  0      
 19 95  1  0      
 20 21  1  0      
 20 96  1  0      
 21 22  2  0      
 21 24  1  0      
 22 23  1  0      
 22 97  1  0      
 23 98  1  0      
 24 25  1  0      
 25 26  1  0      
 25 30  2  0      
 26 27  2  0      
 26 99  1  0      
 27 28  1  0      
 27100  1  0      
 28 29  2  0      
 28 31  1  0      
 29 30  1  0      
 29101  1  0      
 30102  1  0      
 31 32  1  0      
 31 40  1  0      
 32 33  2  0      
 32 34  1  0      
 34 35  1  0      
 34 39  2  0      
 35 36  2  0      
 35103  1  0      
 36 37  1  0      
 36 45  1  0      
 37 38  2  0      
 42 37  1  0      
 38 39  1  0      
 38104  1  0      
 39 40  1  0      
 40 41  2  0      
 42 43  2  0      
 44 42  1  0      
 45 44  1  0      
 44 47  1  0      
 45 46  2  0      
 47 48  1  0      
 47 52  2  0      
 48 49  2  0      
 48105  1  0      
 49 50  1  0      
 49106  1  0      
 50 51  2  0      
 50 53  1  0      
 51 52  1  0      
 51107  1  0      
 52108  1  0      
 53 54  1  0      
 54 55  1  0      
 54 59  2  0      
 55 56  2  0      
 55109  1  0      
 56 57  1  0      
 56110  1  0      
 57 58  2  0      
 57 60  1  0      
 58 59  1  0      
 58111  1  0      
 59112  1  0      
 60 61  1  0      
 60 69  1  0      
 61 62  2  0      
 61 63  1  0      
 63 64  1  0      
 63 68  2  0      
 64 65  2  0      
 64113  1  0      
 65 66  1  0      
 65 74  1  0      
 66 67  2  0      
 71 66  1  0      
 67 68  1  0      
 67114  1  0      
 68 69  1  0      
 69 70  2  0      
 71 72  2  0      
 73 71  1  0      
 74 73  1  0      
 73 76  1  0      
 74 75  2  0      
 76 77  1  0      
 76 81  2  0      
 77 78  2  0      
 77115  1  0      
 78 79  1  0      
 78116  1  0      
 79 80  2  0      
 79 82  1  0      
 80 81  1  0      
 80117  1  0      
 81118  1  0      
 82 83  1  0      
 83 84  1  0      
 83 88  2  0      
 84 85  2  0      
 84119  1  0      
 85 86  1  0      
 85120  1  0      
 86 87  2  0      
 86 89  1  0      
 87 88  1  0      
 87121  1  0      
 88122  1  0      
 89123  1  0      
 89124  1  0      
 89125  1  0      
M  END
$$$$
