Fragment
  Chem3D Core 21.007272619323D

131142  0  0  0  0  0  0  0  0999 V2000
   21.4495    8.6988   -0.8625 C   0  0  0  0  0  0  0  0  0  0  0  0
   20.2449    7.8949   -0.7895 N   0  0  0  0  0  0  0  0  0  0  0  0
   18.9390    8.1758   -1.4417 C   0  0  0  0  0  0  0  0  0  0  0  0
   18.7370    8.8838   -2.3994 O   0  0  0  0  0  0  0  0  0  0  0  0
   17.9309    7.3990   -0.6642 C   0  0  0  0  0  0  0  0  0  0  0  0
   16.5493    7.4658   -0.6983 C   0  0  0  0  0  0  0  0  0  0  0  0
   15.8278    6.5950    0.1218 C   0  0  0  0  0  0  0  0  0  0  0  0
   16.4927    5.6737    0.9477 C   0  0  0  0  0  0  0  0  0  0  0  0
   17.8880    5.6106    0.9647 C   0  0  0  0  0  0  0  0  0  0  0  0
   18.5901    6.4855    0.1547 C   0  0  0  0  0  0  0  0  0  0  0  0
   20.0617    6.6202   -0.0471 C   0  0  0  0  0  0  0  0  0  0  0  0
   20.9230    5.8549    0.3161 O   0  0  0  0  0  0  0  0  0  0  0  0
   15.7758    4.8405    1.7332 C   0  0  0  0  0  0  0  0  0  0  0  0
   16.3417    4.0459    2.4457 O   0  0  0  0  0  0  0  0  0  0  0  0
   14.4080    4.8968    1.7217 N   0  0  0  0  0  0  0  0  0  0  0  0
   13.6942    4.0673    2.5037 C   0  0  0  0  0  0  0  0  0  0  0  0
   12.4808    3.5516    2.0487 C   0  0  0  0  0  0  0  0  0  0  0  0
   11.7405    2.6915    2.8598 C   0  0  0  0  0  0  0  0  0  0  0  0
   12.2138    2.3471    4.1258 C   0  0  0  0  0  0  0  0  0  0  0  0
   13.4273    2.8627    4.5808 C   0  0  0  0  0  0  0  0  0  0  0  0
   14.1675    3.7229    3.7698 C   0  0  0  0  0  0  0  0  0  0  0  0
   11.4193    1.4240    4.9963 C   0  0  0  0  0  0  0  0  0  0  0  0
   10.1689    1.0158    4.2815 C   0  0  0  0  0  0  0  0  0  0  0  0
    8.9271    1.1960    4.8906 C   0  0  0  0  0  0  0  0  0  0  0  0
    7.7620    0.8156    4.2246 C   0  0  0  0  0  0  0  0  0  0  0  0
    7.8388    0.2551    2.9497 C   0  0  0  0  0  0  0  0  0  0  0  0
    9.0806    0.0751    2.3406 C   0  0  0  0  0  0  0  0  0  0  0  0
   10.2457    0.4554    3.0066 C   0  0  0  0  0  0  0  0  0  0  0  0
    6.7813   -0.0901    2.3453 N   0  0  0  0  0  0  0  0  0  0  0  0
    5.3816    0.2115    2.7446 C   0  0  0  0  0  0  0  0  0  0  0  0
    5.0033    1.0997    3.4707 O   0  0  0  0  0  0  0  0  0  0  0  0
    4.5428   -0.8139    2.0596 C   0  0  0  0  0  0  0  0  0  0  0  0
    3.2102   -1.1334    2.2508 C   0  0  0  0  0  0  0  0  0  0  0  0
    2.6500   -2.1285    1.4463 C   0  0  0  0  0  0  0  0  0  0  0  0
    3.4212   -2.7752    0.4664 C   0  0  0  0  0  0  0  0  0  0  0  0
    4.7629   -2.4356    0.2777 C   0  0  0  0  0  0  0  0  0  0  0  0
    5.3074   -1.4551    1.0881 C   0  0  0  0  0  0  0  0  0  0  0  0
    6.6837   -0.8805    1.0902 C   0  0  0  0  0  0  0  0  0  0  0  0
    7.5387   -1.0266    0.2493 O   0  0  0  0  0  0  0  0  0  0  0  0
    2.8597   -3.7350   -0.3009 C   0  0  0  0  0  0  0  0  0  0  0  0
    3.5176   -4.2949   -1.1453 O   0  0  0  0  0  0  0  0  0  0  0  0
    1.5453   -4.0730   -0.1216 N   0  0  0  0  0  0  0  0  0  0  0  0
    0.9864   -5.0285   -0.8856 C   0  0  0  0  0  0  0  0  0  0  0  0
   -0.3437   -4.9100   -1.2885 C   0  0  0  0  0  0  0  0  0  0  0  0
   -0.9233   -5.9010   -2.0807 C   0  0  0  0  0  0  0  0  0  0  0  0
   -0.1729   -7.0104   -2.4700 C   0  0  0  0  0  0  0  0  0  0  0  0
    1.1572   -7.1289   -2.0672 C   0  0  0  0  0  0  0  0  0  0  0  0
    1.7369   -6.1379   -1.2749 C   0  0  0  0  0  0  0  0  0  0  0  0
   -0.7950   -8.0739   -3.3202 C   0  0  0  0  0  0  0  0  0  0  0  0
   -2.2179   -7.7118   -3.6119 C   0  0  0  0  0  0  0  0  0  0  0  0
   -3.2408   -8.6147   -3.3222 C   0  0  0  0  0  0  0  0  0  0  0  0
   -4.5666   -8.2773   -3.5942 C   0  0  0  0  0  0  0  0  0  0  0  0
   -4.8695   -7.0369   -4.1556 C   0  0  0  0  0  0  0  0  0  0  0  0
   -3.8467   -6.1339   -4.4451 C   0  0  0  0  0  0  0  0  0  0  0  0
   -2.5208   -6.4714   -4.1733 C   0  0  0  0  0  0  0  0  0  0  0  0
   -6.0729   -6.7306   -4.4023 N   0  0  0  0  0  0  0  0  0  0  0  0
   -6.5714   -5.4617   -4.9948 C   0  0  0  0  0  0  0  0  0  0  0  0
   -5.9465   -4.6693   -5.6587 O   0  0  0  0  0  0  0  0  0  0  0  0
   -8.0059   -5.3734   -4.5965 C   0  0  0  0  0  0  0  0  0  0  0  0
   -8.8821   -4.3066   -4.6888 C   0  0  0  0  0  0  0  0  0  0  0  0
  -10.1996   -4.4985   -4.2659 C   0  0  0  0  0  0  0  0  0  0  0  0
  -10.6182   -5.7447   -3.7711 C   0  0  0  0  0  0  0  0  0  0  0  0
   -9.7252   -6.8159   -3.6927 C   0  0  0  0  0  0  0  0  0  0  0  0
   -8.4210   -6.6090   -4.1060 C   0  0  0  0  0  0  0  0  0  0  0  0
   -7.2782   -7.5659   -4.1593 C   0  0  0  0  0  0  0  0  0  0  0  0
   -7.3227   -8.7664   -4.0320 O   0  0  0  0  0  0  0  0  0  0  0  0
  -11.8969   -5.9088   -3.3673 C   0  0  0  0  0  0  0  0  0  0  0  0
  -12.2631   -6.9781   -2.9408 O   0  0  0  0  0  0  0  0  0  0  0  0
  -12.7777   -4.8634   -3.4413 N   0  0  0  0  0  0  0  0  0  0  0  0
  -14.0507   -5.0268   -3.0392 C   0  0  0  0  0  0  0  0  0  0  0  0
  -15.0845   -4.3809   -3.7171 C   0  0  0  0  0  0  0  0  0  0  0  0
  -16.4048   -4.5503   -3.2999 C   0  0  0  0  0  0  0  0  0  0  0  0
  -16.6911   -5.3656   -2.2051 C   0  0  0  0  0  0  0  0  0  0  0  0
  -15.6573   -6.0116   -1.5273 C   0  0  0  0  0  0  0  0  0  0  0  0
  -14.3371   -5.8422   -1.9443 C   0  0  0  0  0  0  0  0  0  0  0  0
  -18.1080   -5.5474   -1.7575 C   0  0  0  0  0  0  0  0  0  0  0  0
  -19.0176   -4.7545   -2.6435 C   0  0  0  0  0  0  0  0  0  0  0  0
  -19.9118   -3.8407   -2.0860 C   0  0  0  0  0  0  0  0  0  0  0  0
  -20.7593   -3.1020   -2.9116 C   0  0  0  0  0  0  0  0  0  0  0  0
  -20.7126   -3.2771   -4.2946 C   0  0  0  0  0  0  0  0  0  0  0  0
  -19.8183   -4.1908   -4.8521 C   0  0  0  0  0  0  0  0  0  0  0  0
  -18.9708   -4.9296   -4.0265 C   0  0  0  0  0  0  0  0  0  0  0  0
  -21.6222   -2.4842   -5.1806 C   0  0  0  0  0  0  0  0  0  0  0  0
   21.2615    9.5929   -1.4981 H   0  0  0  0  0  0  0  0  0  0  0  0
   21.7390    9.0262    0.1611 H   0  0  0  0  0  0  0  0  0  0  0  0
   22.2722    8.0947   -1.3063 H   0  0  0  0  0  0  0  0  0  0  0  0
   16.0338    8.1842   -1.3526 H   0  0  0  0  0  0  0  0  0  0  0  0
   14.7284    6.6311    0.1208 H   0  0  0  0  0  0  0  0  0  0  0  0
   18.4137    4.8859    1.6038 H   0  0  0  0  0  0  0  0  0  0  0  0
   13.9339    5.5624    1.1248 H   0  0  0  0  0  0  0  0  0  0  0  0
   12.1076    3.8232    1.0502 H   0  0  0  0  0  0  0  0  0  0  0  0
   10.7835    2.2848    2.5009 H   0  0  0  0  0  0  0  0  0  0  0  0
   13.8005    2.5910    5.5793 H   0  0  0  0  0  0  0  0  0  0  0  0
   15.1245    4.1296    4.1286 H   0  0  0  0  0  0  0  0  0  0  0  0
   12.0256    0.5197    5.2278 H   0  0  0  0  0  0  0  0  0  0  0  0
   11.1522    1.9450    5.9428 H   0  0  0  0  0  0  0  0  0  0  0  0
    8.8666    1.6381    5.8960 H   0  0  0  0  0  0  0  0  0  0  0  0
    6.7826    0.9576    4.7049 H   0  0  0  0  0  0  0  0  0  0  0  0
    9.1411   -0.3669    1.3351 H   0  0  0  0  0  0  0  0  0  0  0  0
   11.2250    0.3133    2.5263 H   0  0  0  0  0  0  0  0  0  0  0  0
    2.6091   -0.6185    3.0146 H   0  0  0  0  0  0  0  0  0  0  0  0
    1.5948   -2.4084    1.5814 H   0  0  0  0  0  0  0  0  0  0  0  0
    5.3694   -2.9335   -0.4932 H   0  0  0  0  0  0  0  0  0  0  0  0
    0.9942   -3.6040    0.5858 H   0  0  0  0  0  0  0  0  0  0  0  0
   -0.9355   -4.0351   -0.9815 H   0  0  0  0  0  0  0  0  0  0  0  0
   -1.9723   -5.8077   -2.3984 H   0  0  0  0  0  0  0  0  0  0  0  0
    1.7491   -8.0038   -2.3742 H   0  0  0  0  0  0  0  0  0  0  0  0
    2.7858   -6.2313   -0.9571 H   0  0  0  0  0  0  0  0  0  0  0  0
   -0.2314   -8.1609   -4.2760 H   0  0  0  0  0  0  0  0  0  0  0  0
   -0.7632   -9.0465   -2.7799 H   0  0  0  0  0  0  0  0  0  0  0  0
   -3.0019   -9.5929   -2.8794 H   0  0  0  0  0  0  0  0  0  0  0  0
   -5.3733   -8.9894   -3.3658 H   0  0  0  0  0  0  0  0  0  0  0  0
   -4.0856   -5.1557   -4.8878 H   0  0  0  0  0  0  0  0  0  0  0  0
   -1.7141   -5.7593   -4.4017 H   0  0  0  0  0  0  0  0  0  0  0  0
   -8.5508   -3.3350   -5.0841 H   0  0  0  0  0  0  0  0  0  0  0  0
  -10.9161   -3.6656   -4.3208 H   0  0  0  0  0  0  0  0  0  0  0  0
  -10.0495   -7.7961   -3.3132 H   0  0  0  0  0  0  0  0  0  0  0  0
  -12.4709   -3.9676   -3.7985 H   0  0  0  0  0  0  0  0  0  0  0  0
  -14.8587   -3.7379   -4.5805 H   0  0  0  0  0  0  0  0  0  0  0  0
  -17.2201   -4.0408   -3.8345 H   0  0  0  0  0  0  0  0  0  0  0  0
  -15.8831   -6.6547   -0.6639 H   0  0  0  0  0  0  0  0  0  0  0  0
  -13.5217   -6.3515   -1.4098 H   0  0  0  0  0  0  0  0  0  0  0  0
  -18.3799   -6.6251   -1.8169 H   0  0  0  0  0  0  0  0  0  0  0  0
  -18.2132   -5.1946   -0.7072 H   0  0  0  0  0  0  0  0  0  0  0  0
  -19.9486   -3.7026   -0.9953 H   0  0  0  0  0  0  0  0  0  0  0  0
  -21.4646   -2.3814   -2.4720 H   0  0  0  0  0  0  0  0  0  0  0  0
  -19.7814   -4.3288   -5.9428 H   0  0  0  0  0  0  0  0  0  0  0  0
  -18.2656   -5.6503   -4.4661 H   0  0  0  0  0  0  0  0  0  0  0  0
  -22.2566   -1.8146   -4.5577 H   0  0  0  0  0  0  0  0  0  0  0  0
  -21.0138   -1.8709   -5.8823 H   0  0  0  0  0  0  0  0  0  0  0  0
  -22.2722   -3.1774   -5.7601 H   0  0  0  0  0  0  0  0  0  0  0  0
  1  2  1  0      
  1 84  1  0      
  1 85  1  0      
  1 86  1  0      
  2  3  1  0      
  2 11  1  0      
  3  4  2  0      
  3  5  1  0      
  5  6  1  0      
  5 10  2  0      
  6  7  2  0      
  6 87  1  0      
  7  8  1  0      
  7 88  1  0      
  8  9  2  0      
  8 13  1  0      
  9 10  1  0      
  9 89  1  0      
 10 11  1  0      
 11 12  2  0      
 13 14  2  0      
 13 15  1  0      
 15 16  1  0      
 15 90  1  0      
 16 17  1  0      
 16 21  2  0      
 17 18  2  0      
 17 91  1  0      
 18 19  1  0      
 18 92  1  0      
 19 20  2  0      
 19 22  1  0      
 20 21  1  0      
 20 93  1  0      
 21 94  1  0      
 22 23  1  0      
 22 95  1  0      
 22 96  1  0      
 23 24  1  0      
 23 28  2  0      
 24 25  2  0      
 24 97  1  0      
 25 26  1  0      
 25 98  1  0      
 26 27  2  0      
 26 29  1  0      
 27 28  1  0      
 27 99  1  0      
 28100  1  0      
 29 30  1  0      
 29 38  1  0      
 30 31  2  0      
 30 32  1  0      
 32 33  1  0      
 32 37  2  0      
 33 34  2  0      
 33101  1  0      
 34 35  1  0      
 34102  1  0      
 35 36  2  0      
 35 40  1  0      
 36 37  1  0      
 36103  1  0      
 37 38  1  0      
 38 39  2  0      
 40 41  2  0      
 40 42  1  0      
 42 43  1  0      
 42104  1  0      
 43 44  1  0      
 43 48  2  0      
 44 45  2  0      
 44105  1  0      
 45 46  1  0      
 45106  1  0      
 46 47  2  0      
 46 49  1  0      
 47 48  1  0      
 47107  1  0      
 48108  1  0      
 49 50  1  0      
 49109  1  0      
 49110  1  0      
 50 51  1  0      
 50 55  2  0      
 51 52  2  0      
 51111  1  0      
 52 53  1  0      
 52112  1  0      
 53 54  2  0      
 53 56  1  0      
 54 55  1  0      
 54113  1  0      
 55114  1  0      
 56 57  1  0      
 56 65  1  0      
 57 58  2  0      
 57 59  1  0      
 59 60  1  0      
 59 64  2  0      
 60 61  2  0      
 60115  1  0      
 61 62  1  0      
 61116  1  0      
 62 63  2  0      
 62 67  1  0      
 63 64  1  0      
 63117  1  0      
 64 65  1  0      
 65 66  2  0      
 67 68  2  0      
 67 69  1  0      
 69 70  1  0      
 69118  1  0      
 70 71  1  0      
 70 75  2  0      
 71 72  2  0      
 71119  1  0      
 72 73  1  0      
 72120  1  0      
 73 74  2  0      
 73 76  1  0      
 74 75  1  0      
 74121  1  0      
 75122  1  0      
 76 77  1  0      
 76123  1  0      
 76124  1  0      
 77 78  1  0      
 77 82  2  0      
 78 79  2  0      
 78125  1  0      
 79 80  1  0      
 79126  1  0      
 80 81  2  0      
 80 83  1  0      
 81 82  1  0      
 81127  1  0      
 82128  1  0      
 83129  1  0      
 83130  1  0      
 83131  1  0      
M  END
$$$$
