Fragment
  Chem3D Core 21.007272619303D

 62 65  0  0  0  0  0  0  0  0999 V2000
    6.9484    3.8551    1.7426 C   0  0  0  0  0  0  0  0  0  0  0  0
    7.6860    2.7033    2.0507 O   0  0  0  0  0  0  0  0  0  0  0  0
    6.8619    1.6637    2.3265 C   0  0  0  0  0  0  0  0  0  0  0  0
    7.3966    0.4191    2.6590 C   0  0  0  0  0  0  0  0  0  0  0  0
    6.5482   -0.6511    2.9428 C   0  0  0  0  0  0  0  0  0  0  0  0
    5.1652   -0.4766    2.8942 C   0  0  0  0  0  0  0  0  0  0  0  0
    4.6305    0.7680    2.5618 C   0  0  0  0  0  0  0  0  0  0  0  0
    5.4789    1.8382    2.2779 C   0  0  0  0  0  0  0  0  0  0  0  0
    4.2547   -1.6252    3.1988 C   0  0  0  0  0  0  0  0  0  0  0  0
    5.0851   -2.8586    3.5287 C   0  0  0  0  0  0  0  0  0  0  0  0
    3.3752   -1.2725    4.3911 C   0  0  0  0  0  0  0  0  0  0  0  0
    3.3929   -1.9080    2.0078 C   0  0  0  0  0  0  0  0  0  0  0  0
    3.9781   -2.2556    0.7904 C   0  0  0  0  0  0  0  0  0  0  0  0
    3.1751   -2.5190   -0.3194 C   0  0  0  0  0  0  0  0  0  0  0  0
    1.7870   -2.4349   -0.2115 C   0  0  0  0  0  0  0  0  0  0  0  0
    1.2018   -2.0874    1.0060 C   0  0  0  0  0  0  0  0  0  0  0  0
    2.0048   -1.8239    2.1157 C   0  0  0  0  0  0  0  0  0  0  0  0
    1.0070   -2.6908   -1.2895 O   0  0  0  0  0  0  0  0  0  0  0  0
   -0.3113   -2.5622   -1.0042 C   0  0  0  0  0  0  0  0  0  0  0  0
   -1.1191   -3.6957   -0.9140 C   0  0  0  0  0  0  0  0  0  0  0  0
   -2.4763   -3.5633   -0.6204 C   0  0  0  0  0  0  0  0  0  0  0  0
   -3.0255   -2.2975   -0.4168 C   0  0  0  0  0  0  0  0  0  0  0  0
   -2.2177   -1.1640   -0.5068 C   0  0  0  0  0  0  0  0  0  0  0  0
   -0.8606   -1.2964   -0.8006 C   0  0  0  0  0  0  0  0  0  0  0  0
   -4.7671   -2.1276   -0.0399 S   0  0  0  0  0  0  0  0  0  0  0  0
   -5.3843   -3.4392   -0.0022 O   0  0  0  0  0  0  0  0  0  0  0  0
   -4.9212   -1.4845    1.2505 O   0  0  0  0  0  0  0  0  0  0  0  0
   -5.5562   -1.1332   -1.3019 C   0  0  0  0  0  0  0  0  0  0  0  0
   -5.0189   -1.0839   -2.5881 C   0  0  0  0  0  0  0  0  0  0  0  0
   -5.6337   -0.3089   -3.5715 C   0  0  0  0  0  0  0  0  0  0  0  0
   -6.7859    0.4167   -3.2685 C   0  0  0  0  0  0  0  0  0  0  0  0
   -7.3232    0.3673   -1.9824 C   0  0  0  0  0  0  0  0  0  0  0  0
   -6.7083   -0.4077   -0.9990 C   0  0  0  0  0  0  0  0  0  0  0  0
   -7.4457    1.2484   -4.3239 C   0  0  0  0  0  0  0  0  0  0  0  0
    7.6452    4.6940    1.5201 H   0  0  0  0  0  0  0  0  0  0  0  0
    6.3091    3.6587    0.8530 H   0  0  0  0  0  0  0  0  0  0  0  0
    6.3058    4.1269    2.6097 H   0  0  0  0  0  0  0  0  0  0  0  0
    8.4872    0.2815    2.6974 H   0  0  0  0  0  0  0  0  0  0  0  0
    6.9698   -1.6327    3.2049 H   0  0  0  0  0  0  0  0  0  0  0  0
    3.5398    0.9056    2.5235 H   0  0  0  0  0  0  0  0  0  0  0  0
    5.0572    2.8198    2.0157 H   0  0  0  0  0  0  0  0  0  0  0  0
    4.4081   -3.7125    3.7551 H   0  0  0  0  0  0  0  0  0  0  0  0
    5.7278   -3.1163    2.6573 H   0  0  0  0  0  0  0  0  0  0  0  0
    5.7258   -2.6483    4.4141 H   0  0  0  0  0  0  0  0  0  0  0  0
    2.6978   -2.1259    4.6184 H   0  0  0  0  0  0  0  0  0  0  0  0
    2.7678   -0.3715    4.1498 H   0  0  0  0  0  0  0  0  0  0  0  0
    4.0168   -1.0624    5.2760 H   0  0  0  0  0  0  0  0  0  0  0  0
    5.0728   -2.3220    0.7054 H   0  0  0  0  0  0  0  0  0  0  0  0
    3.6366   -2.7930   -1.2795 H   0  0  0  0  0  0  0  0  0  0  0  0
    0.1071   -2.0212    1.0910 H   0  0  0  0  0  0  0  0  0  0  0  0
    1.5434   -1.5498    3.0759 H   0  0  0  0  0  0  0  0  0  0  0  0
   -0.6859   -4.6940   -1.0745 H   0  0  0  0  0  0  0  0  0  0  0  0
   -3.1134   -4.4572   -0.5493 H   0  0  0  0  0  0  0  0  0  0  0  0
   -2.6509   -0.1657   -0.3462 H   0  0  0  0  0  0  0  0  0  0  0  0
   -0.2235   -0.4025   -0.8717 H   0  0  0  0  0  0  0  0  0  0  0  0
   -4.1104   -1.6561   -2.8270 H   0  0  0  0  0  0  0  0  0  0  0  0
   -5.2100   -0.2698   -4.5858 H   0  0  0  0  0  0  0  0  0  0  0  0
   -8.2318    0.9394   -1.7435 H   0  0  0  0  0  0  0  0  0  0  0  0
   -7.1320   -0.4466    0.0154 H   0  0  0  0  0  0  0  0  0  0  0  0
   -6.8758    1.1612   -5.2760 H   0  0  0  0  0  0  0  0  0  0  0  0
   -8.4872    0.8891   -4.4814 H   0  0  0  0  0  0  0  0  0  0  0  0
   -7.4646    2.3128   -3.9992 H   0  0  0  0  0  0  0  0  0  0  0  0
  1  2  1  0      
  1 35  1  0      
  1 36  1  0      
  1 37  1  0      
  2  3  1  0      
  3  4  1  0      
  3  8  2  0      
  4  5  2  0      
  4 38  1  0      
  5  6  1  0      
  5 39  1  0      
  6  7  2  0      
  6  9  1  0      
  7  8  1  0      
  7 40  1  0      
  8 41  1  0      
  9 10  1  0      
  9 11  1  0      
  9 12  1  0      
 10 42  1  0      
 10 43  1  0      
 10 44  1  0      
 11 45  1  0      
 11 46  1  0      
 11 47  1  0      
 12 13  1  0      
 12 17  2  0      
 13 14  2  0      
 13 48  1  0      
 14 15  1  0      
 14 49  1  0      
 15 16  2  0      
 15 18  1  0      
 16 17  1  0      
 16 50  1  0      
 17 51  1  0      
 18 19  1  0      
 19 20  1  0      
 19 24  2  0      
 20 21  2  0      
 20 52  1  0      
 21 22  1  0      
 21 53  1  0      
 22 23  2  0      
 22 25  1  0      
 23 24  1  0      
 23 54  1  0      
 24 55  1  0      
 25 26  2  0      
 25 27  2  0      
 25 28  1  0      
 28 29  1  0      
 28 33  2  0      
 29 30  2  0      
 29 56  1  0      
 30 31  1  0      
 30 57  1  0      
 31 32  2  0      
 31 34  1  0      
 32 33  1  0      
 32 58  1  0      
 33 59  1  0      
 34 60  1  0      
 34 61  1  0      
 34 62  1  0      
M  END
$$$$
