Fragment
  Chem3D Core 21.007272619293D

 20 19  0  0  0  0  0  0  0  0999 V2000
   -1.1500    1.8144   -0.5333 C   0  0  0  0  0  0  0  0  0  0  0  0
    0.0641    1.1133   -0.5333 O   0  0  0  0  0  0  0  0  0  0  0  0
   -0.2562   -0.2516   -0.5333 C   0  0  0  0  0  0  0  0  0  0  0  0
   -1.0711   -0.5826   -1.7766 C   0  0  0  0  0  0  0  0  0  0  0  0
    1.0262   -1.0732   -0.5342 C   0  0  0  0  0  0  0  0  0  0  0  0
    1.0674   -1.9440    0.6975 C   0  0  0  0  0  0  0  0  0  0  0  0
    2.0083   -2.6775    0.8874 O   0  0  0  0  0  0  0  0  0  0  0  0
   -0.0666   -1.8986    1.6919 C   0  0  0  0  0  0  0  0  0  0  0  0
   -0.9471    2.9088   -0.5333 H   0  0  0  0  0  0  0  0  0  0  0  0
   -1.7329    1.5457   -1.4426 H   0  0  0  0  0  0  0  0  0  0  0  0
   -1.7335    1.5455    0.3755 H   0  0  0  0  0  0  0  0  0  0  0  0
   -0.8517   -0.4928    0.3755 H   0  0  0  0  0  0  0  0  0  0  0  0
   -1.3254   -1.6662   -1.7766 H   0  0  0  0  0  0  0  0  0  0  0  0
   -2.0083    0.0178   -1.7760 H   0  0  0  0  0  0  0  0  0  0  0  0
   -0.4756   -0.3414   -2.6854 H   0  0  0  0  0  0  0  0  0  0  0  0
    1.0542   -1.7153   -1.4429 H   0  0  0  0  0  0  0  0  0  0  0  0
    1.9046   -0.3897   -0.5347 H   0  0  0  0  0  0  0  0  0  0  0  0
   -0.8342   -1.1700    1.3471 H   0  0  0  0  0  0  0  0  0  0  0  0
   -0.5261   -2.9088    1.7762 H   0  0  0  0  0  0  0  0  0  0  0  0
    0.3238   -1.5835    2.6854 H   0  0  0  0  0  0  0  0  0  0  0  0
  1  2  1  0      
  1  9  1  0      
  1 10  1  0      
  1 11  1  0      
  2  3  1  0      
  3  4  1  0      
  3  5  1  0      
  3 12  1  0      
  4 13  1  0      
  4 14  1  0      
  4 15  1  0      
  5  6  1  0      
  5 16  1  0      
  5 17  1  0      
  6  7  2  0      
  6  8  1  0      
  8 18  1  0      
  8 19  1  0      
  8 20  1  0      
M  END
$$$$
