Fragment
  Chem3D Core 21.007272619303D

 42 44  0  0  0  0  0  0  0  0999 V2000
    5.2005    2.3245   -2.7923 C   0  0  0  0  0  0  0  0  0  0  0  0
    5.9380    1.1726   -2.4843 O   0  0  0  0  0  0  0  0  0  0  0  0
    5.1139    0.1330   -2.2084 C   0  0  0  0  0  0  0  0  0  0  0  0
    5.6486   -1.1116   -1.8759 C   0  0  0  0  0  0  0  0  0  0  0  0
    4.8002   -2.1818   -1.5921 C   0  0  0  0  0  0  0  0  0  0  0  0
    3.4172   -2.0073   -1.6407 C   0  0  0  0  0  0  0  0  0  0  0  0
    2.8825   -0.7627   -1.9731 C   0  0  0  0  0  0  0  0  0  0  0  0
    3.7309    0.3075   -2.2570 C   0  0  0  0  0  0  0  0  0  0  0  0
    2.5931   -3.0469   -1.3650 O   0  0  0  0  0  0  0  0  0  0  0  0
    1.2871   -2.6984   -1.4599 C   0  0  0  0  0  0  0  0  0  0  0  0
    0.5138   -2.5708   -0.3061 C   0  0  0  0  0  0  0  0  0  0  0  0
   -0.8306   -2.2122   -0.4038 C   0  0  0  0  0  0  0  0  0  0  0  0
   -1.4016   -1.9810   -1.6552 C   0  0  0  0  0  0  0  0  0  0  0  0
   -0.6283   -2.1084   -2.8090 C   0  0  0  0  0  0  0  0  0  0  0  0
    0.7162   -2.4672   -2.7113 C   0  0  0  0  0  0  0  0  0  0  0  0
   -2.7037   -1.6336   -1.7498 C   0  0  0  0  0  0  0  0  0  0  0  0
   -3.1983   -1.4333   -2.8335 O   0  0  0  0  0  0  0  0  0  0  0  0
   -3.4528   -1.5101   -0.6322 C   0  0  0  0  0  0  0  0  0  0  0  0
   -4.6496   -2.2165   -0.5134 C   0  0  0  0  0  0  0  0  0  0  0  0
   -5.4230   -2.0889    0.6404 C   0  0  0  0  0  0  0  0  0  0  0  0
   -4.9995   -1.2551    1.6753 C   0  0  0  0  0  0  0  0  0  0  0  0
   -3.8027   -0.5488    1.5564 C   0  0  0  0  0  0  0  0  0  0  0  0
   -3.0293   -0.6763    0.4026 C   0  0  0  0  0  0  0  0  0  0  0  0
   -5.8296   -1.1182    2.9135 C   0  0  0  0  0  0  0  0  0  0  0  0
    5.8973    3.1634   -3.0149 H   0  0  0  0  0  0  0  0  0  0  0  0
    4.5611    2.1281   -3.6820 H   0  0  0  0  0  0  0  0  0  0  0  0
    4.5578    2.5963   -1.9252 H   0  0  0  0  0  0  0  0  0  0  0  0
    6.7393   -1.2491   -1.8375 H   0  0  0  0  0  0  0  0  0  0  0  0
    5.2218   -3.1634   -1.3300 H   0  0  0  0  0  0  0  0  0  0  0  0
    1.7918   -0.6251   -2.0114 H   0  0  0  0  0  0  0  0  0  0  0  0
    3.3093    1.2891   -2.5193 H   0  0  0  0  0  0  0  0  0  0  0  0
    0.9642   -2.7531    0.6808 H   0  0  0  0  0  0  0  0  0  0  0  0
   -1.4405   -2.1117    0.5061 H   0  0  0  0  0  0  0  0  0  0  0  0
   -1.0786   -1.9260   -3.7958 H   0  0  0  0  0  0  0  0  0  0  0  0
    1.3261   -2.5678   -3.6212 H   0  0  0  0  0  0  0  0  0  0  0  0
   -4.9835   -2.8741   -1.3294 H   0  0  0  0  0  0  0  0  0  0  0  0
   -6.3670   -2.6459    0.7342 H   0  0  0  0  0  0  0  0  0  0  0  0
   -3.4687    0.1088    2.3726 H   0  0  0  0  0  0  0  0  0  0  0  0
   -2.0854   -0.1192    0.3088 H   0  0  0  0  0  0  0  0  0  0  0  0
   -6.7393   -1.7531    2.8230 H   0  0  0  0  0  0  0  0  0  0  0  0
   -5.2355   -1.4458    3.7958 H   0  0  0  0  0  0  0  0  0  0  0  0
   -6.1310   -0.0545    3.0422 H   0  0  0  0  0  0  0  0  0  0  0  0
  1  2  1  0      
  1 25  1  0      
  1 26  1  0      
  1 27  1  0      
  2  3  1  0      
  3  4  1  0      
  3  8  2  0      
  4  5  2  0      
  4 28  1  0      
  5  6  1  0      
  5 29  1  0      
  6  7  2  0      
  6  9  1  0      
  7  8  1  0      
  7 30  1  0      
  8 31  1  0      
  9 10  1  0      
 10 11  1  0      
 10 15  2  0      
 11 12  2  0      
 11 32  1  0      
 12 13  1  0      
 12 33  1  0      
 13 14  2  0      
 13 16  1  0      
 14 15  1  0      
 14 34  1  0      
 15 35  1  0      
 16 17  2  0      
 16 18  1  0      
 18 19  1  0      
 18 23  2  0      
 19 20  2  0      
 19 36  1  0      
 20 21  1  0      
 20 37  1  0      
 21 22  2  0      
 21 24  1  0      
 22 23  1  0      
 22 38  1  0      
 23 39  1  0      
 24 40  1  0      
 24 41  1  0      
 24 42  1  0      
M  END
$$$$
