Fragment
  Chem3D Core 21.007272619323D

116130  0  0  0  0  0  0  0  0999 V2000
  -16.8888   -1.9062   -4.4002 C   0  0  0  0  0  0  0  0  0  0  0  0
  -15.4491   -2.2093   -4.6765 C   0  0  0  0  0  0  0  0  0  0  0  0
  -14.4535   -1.4255   -4.0872 C   0  0  0  0  0  0  0  0  0  0  0  0
  -13.0957   -1.6760   -4.3199 C   0  0  0  0  0  0  0  0  0  0  0  0
  -12.7930   -2.7441   -5.1670 C   0  0  0  0  0  0  0  0  0  0  0  0
  -11.6053   -3.2678   -5.6099 N   0  0  0  0  0  0  0  0  0  0  0  0
  -11.8889   -4.3226   -6.4309 C   0  0  0  0  0  0  0  0  0  0  0  0
  -13.1828   -4.5141   -6.5470 N   0  0  0  0  0  0  0  0  0  0  0  0
  -13.7620   -3.5417   -5.7678 C   0  0  0  0  0  0  0  0  0  0  0  0
  -15.1166   -3.2752   -5.5226 C   0  0  0  0  0  0  0  0  0  0  0  0
  -10.9623   -5.0685   -7.0413 C   0  0  0  0  0  0  0  0  0  0  0  0
  -11.3438   -6.1910   -7.7762 C   0  0  0  0  0  0  0  0  0  0  0  0
  -10.3771   -6.9692   -8.4129 C   0  0  0  0  0  0  0  0  0  0  0  0
   -9.0290   -6.6248   -8.3149 C   0  0  0  0  0  0  0  0  0  0  0  0
   -8.6475   -5.5023   -7.5802 C   0  0  0  0  0  0  0  0  0  0  0  0
   -9.6143   -4.7241   -6.9433 C   0  0  0  0  0  0  0  0  0  0  0  0
   -7.3553   -5.1722   -7.4863 C   0  0  0  0  0  0  0  0  0  0  0  0
   -6.3799   -5.8454   -8.0516 N   0  0  0  0  0  0  0  0  0  0  0  0
   -5.2318   -5.1734   -7.7071 C   0  0  0  0  0  0  0  0  0  0  0  0
   -3.8967   -5.4487   -8.0352 C   0  0  0  0  0  0  0  0  0  0  0  0
   -2.8963   -4.5960   -7.5507 C   0  0  0  0  0  0  0  0  0  0  0  0
   -3.2190   -3.4925   -6.7563 C   0  0  0  0  0  0  0  0  0  0  0  0
   -4.5461   -3.2013   -6.4180 C   0  0  0  0  0  0  0  0  0  0  0  0
   -5.5226   -4.0675   -6.9143 C   0  0  0  0  0  0  0  0  0  0  0  0
   -6.8882   -4.0930   -6.7904 N   0  0  0  0  0  0  0  0  0  0  0  0
   -1.6170   -4.8409   -7.8521 C   0  0  0  0  0  0  0  0  0  0  0  0
   -1.3080   -5.6033   -8.9818 C   0  0  0  0  0  0  0  0  0  0  0  0
    0.0187   -5.8823   -9.3321 C   0  0  0  0  0  0  0  0  0  0  0  0
    1.0089   -5.3610   -8.4968 C   0  0  0  0  0  0  0  0  0  0  0  0
    2.3784   -5.4295   -8.5283 N   0  0  0  0  0  0  0  0  0  0  0  0
    2.8608   -4.7329   -7.4564 C   0  0  0  0  0  0  0  0  0  0  0  0
    1.8917   -4.2190   -6.7345 N   0  0  0  0  0  0  0  0  0  0  0  0
    0.7320   -4.5989   -7.3660 C   0  0  0  0  0  0  0  0  0  0  0  0
   -0.6029   -4.3301   -7.0316 C   0  0  0  0  0  0  0  0  0  0  0  0
    4.1606   -4.5919   -7.1766 C   0  0  0  0  0  0  0  0  0  0  0  0
    5.0959   -5.4479   -7.7579 C   0  0  0  0  0  0  0  0  0  0  0  0
    6.4519   -5.3008   -7.4660 C   0  0  0  0  0  0  0  0  0  0  0  0
    6.8725   -4.2977   -6.5929 C   0  0  0  0  0  0  0  0  0  0  0  0
    5.9373   -3.4416   -6.0117 C   0  0  0  0  0  0  0  0  0  0  0  0
    4.5812   -3.5888   -6.3036 C   0  0  0  0  0  0  0  0  0  0  0  0
    6.3405   -2.4800   -5.1748 C   0  0  0  0  0  0  0  0  0  0  0  0
    7.5829   -2.0683   -5.0693 N   0  0  0  0  0  0  0  0  0  0  0  0
    7.5561   -1.0850   -4.1099 C   0  0  0  0  0  0  0  0  0  0  0  0
    8.5995   -0.3014   -3.5968 C   0  0  0  0  0  0  0  0  0  0  0  0
    8.3044    0.6464   -2.6083 C   0  0  0  0  0  0  0  0  0  0  0  0
    6.9977    0.8102   -2.1408 C   0  0  0  0  0  0  0  0  0  0  0  0
    5.9426    0.0374   -2.6407 C   0  0  0  0  0  0  0  0  0  0  0  0
    6.2652   -0.8994   -3.6249 C   0  0  0  0  0  0  0  0  0  0  0  0
    5.5101   -1.8055   -4.3248 N   0  0  0  0  0  0  0  0  0  0  0  0
    9.2851    1.4037   -2.1060 C   0  0  0  0  0  0  0  0  0  0  0  0
   10.4057    1.6910   -2.8900 C   0  0  0  0  0  0  0  0  0  0  0  0
   11.4541    2.4800   -2.4014 C   0  0  0  0  0  0  0  0  0  0  0  0
   11.3198    2.9606   -1.0972 C   0  0  0  0  0  0  0  0  0  0  0  0
   12.1261    3.7425   -0.3100 N   0  0  0  0  0  0  0  0  0  0  0  0
   11.5046    3.9110    0.8951 C   0  0  0  0  0  0  0  0  0  0  0  0
   10.3491    3.2887    0.9374 N   0  0  0  0  0  0  0  0  0  0  0  0
   10.2165    2.6915   -0.2931 C   0  0  0  0  0  0  0  0  0  0  0  0
    9.1766    1.8994   -0.8001 C   0  0  0  0  0  0  0  0  0  0  0  0
   12.0110    4.6225    1.9074 C   0  0  0  0  0  0  0  0  0  0  0  0
   12.0533    6.0145    1.8290 C   0  0  0  0  0  0  0  0  0  0  0  0
   12.5817    6.7568    2.8851 C   0  0  0  0  0  0  0  0  0  0  0  0
   13.0678    6.1071    4.0196 C   0  0  0  0  0  0  0  0  0  0  0  0
   13.0254    4.7152    4.0981 C   0  0  0  0  0  0  0  0  0  0  0  0
   12.4971    3.9728    3.0420 C   0  0  0  0  0  0  0  0  0  0  0  0
   13.4913    4.0924    5.1857 C   0  0  0  0  0  0  0  0  0  0  0  0
   14.6629    3.5033    5.2524 N   0  0  0  0  0  0  0  0  0  0  0  0
   14.7402    2.9989    6.5282 C   0  0  0  0  0  0  0  0  0  0  0  0
   15.7694    2.2759    7.1479 C   0  0  0  0  0  0  0  0  0  0  0  0
   15.5993    1.8709    8.4782 C   0  0  0  0  0  0  0  0  0  0  0  0
   14.4288    2.1796    9.1764 C   0  0  0  0  0  0  0  0  0  0  0  0
   13.3901    2.9006    8.5748 C   0  0  0  0  0  0  0  0  0  0  0  0
   13.5863    3.2914    7.2487 C   0  0  0  0  0  0  0  0  0  0  0  0
   12.8064    3.9913    6.3637 N   0  0  0  0  0  0  0  0  0  0  0  0
   16.6848    1.0980    9.1602 C   0  0  0  0  0  0  0  0  0  0  0  0
  -17.5328   -2.6283   -4.9504 H   0  0  0  0  0  0  0  0  0  0  0  0
  -17.0830   -1.9944   -3.3078 H   0  0  0  0  0  0  0  0  0  0  0  0
  -17.1211   -0.8711   -4.7368 H   0  0  0  0  0  0  0  0  0  0  0  0
  -14.7425   -0.5946   -3.4268 H   0  0  0  0  0  0  0  0  0  0  0  0
  -12.3075   -1.0626   -3.8589 H   0  0  0  0  0  0  0  0  0  0  0  0
  -10.6464   -2.9194   -5.3616 H   0  0  0  0  0  0  0  0  0  0  0  0
  -15.9023   -3.8906   -5.9852 H   0  0  0  0  0  0  0  0  0  0  0  0
  -12.4069   -6.4625   -7.8535 H   0  0  0  0  0  0  0  0  0  0  0  0
  -10.6778   -7.8545   -8.9924 H   0  0  0  0  0  0  0  0  0  0  0  0
   -8.2666   -7.2385   -8.8171 H   0  0  0  0  0  0  0  0  0  0  0  0
   -9.3135   -3.8389   -6.3638 H   0  0  0  0  0  0  0  0  0  0  0  0
   -3.6399   -6.3166   -8.6604 H   0  0  0  0  0  0  0  0  0  0  0  0
   -2.4138   -2.8393   -6.3891 H   0  0  0  0  0  0  0  0  0  0  0  0
   -4.8064   -2.3342   -5.7931 H   0  0  0  0  0  0  0  0  0  0  0  0
   -7.4723   -3.4042   -6.2547 H   0  0  0  0  0  0  0  0  0  0  0  0
   -2.1238   -5.9922   -9.6088 H   0  0  0  0  0  0  0  0  0  0  0  0
    0.2682   -6.4817  -10.2201 H   0  0  0  0  0  0  0  0  0  0  0  0
    2.9549   -5.9294   -9.2496 H   0  0  0  0  0  0  0  0  0  0  0  0
   -0.8489   -3.7304   -6.1429 H   0  0  0  0  0  0  0  0  0  0  0  0
    4.7642   -6.2390   -8.4466 H   0  0  0  0  0  0  0  0  0  0  0  0
    7.1896   -5.9760   -7.9243 H   0  0  0  0  0  0  0  0  0  0  0  0
    7.9419   -4.1817   -6.3627 H   0  0  0  0  0  0  0  0  0  0  0  0
    3.8435   -2.9137   -5.8452 H   0  0  0  0  0  0  0  0  0  0  0  0
    9.6290   -0.4283   -3.9630 H   0  0  0  0  0  0  0  0  0  0  0  0
    6.7938    1.5619   -1.3640 H   0  0  0  0  0  0  0  0  0  0  0  0
    4.9121    0.1617   -2.2768 H   0  0  0  0  0  0  0  0  0  0  0  0
    4.4756   -1.9547   -4.2249 H   0  0  0  0  0  0  0  0  0  0  0  0
   10.4653    1.2889   -3.9121 H   0  0  0  0  0  0  0  0  0  0  0  0
   12.3386    2.7096   -3.0137 H   0  0  0  0  0  0  0  0  0  0  0  0
   13.0576    4.1414   -0.5852 H   0  0  0  0  0  0  0  0  0  0  0  0
    8.2935    1.6717   -0.1851 H   0  0  0  0  0  0  0  0  0  0  0  0
   11.6699    6.5268    0.9343 H   0  0  0  0  0  0  0  0  0  0  0  0
   12.6152    7.8545    2.8232 H   0  0  0  0  0  0  0  0  0  0  0  0
   13.4845    6.6925    4.8525 H   0  0  0  0  0  0  0  0  0  0  0  0
   12.4637    2.8751    3.1038 H   0  0  0  0  0  0  0  0  0  0  0  0
   16.6918    2.0316    6.6006 H   0  0  0  0  0  0  0  0  0  0  0  0
   14.3212    1.8493   10.2201 H   0  0  0  0  0  0  0  0  0  0  0  0
   12.4664    3.1466    9.1193 H   0  0  0  0  0  0  0  0  0  0  0  0
   11.8509    4.3809    6.5575 H   0  0  0  0  0  0  0  0  0  0  0  0
   17.5328    0.9473    8.4552 H   0  0  0  0  0  0  0  0  0  0  0  0
   17.0393    1.6640   10.0505 H   0  0  0  0  0  0  0  0  0  0  0  0
   16.2895    0.1084    9.4817 H   0  0  0  0  0  0  0  0  0  0  0  0
  1  2  1  0      
  1 75  1  0      
  1 76  1  0      
  1 77  1  0      
  2  3  2  0      
 10  2  1  0      
  3  4  1  0      
  3 78  1  0      
  4  5  2  0      
  4 79  1  0      
  6  5  1  0      
  9  5  1  0      
  6  7  1  0      
  6 80  1  0      
  7  8  2  0      
  7 11  1  0      
  8  9  1  0      
  9 10  2  0      
 10 81  1  0      
 11 12  1  0      
 11 16  2  0      
 12 13  2  0      
 12 82  1  0      
 13 14  1  0      
 13 83  1  0      
 14 15  2  0      
 14 84  1  0      
 15 16  1  0      
 15 17  1  0      
 16 85  1  0      
 17 18  2  0      
 25 17  1  0      
 18 19  1  0      
 19 20  2  0      
 19 24  1  0      
 20 21  1  0      
 20 86  1  0      
 21 22  2  0      
 21 26  1  0      
 22 23  1  0      
 22 87  1  0      
 23 24  2  0      
 23 88  1  0      
 25 24  1  0      
 25 89  1  0      
 26 27  2  0      
 34 26  1  0      
 27 28  1  0      
 27 90  1  0      
 28 29  2  0      
 28 91  1  0      
 30 29  1  0      
 33 29  1  0      
 30 31  1  0      
 30 92  1  0      
 31 32  2  0      
 31 35  1  0      
 32 33  1  0      
 33 34  2  0      
 34 93  1  0      
 35 36  1  0      
 35 40  2  0      
 36 37  2  0      
 36 94  1  0      
 37 38  1  0      
 37 95  1  0      
 38 39  2  0      
 38 96  1  0      
 39 40  1  0      
 39 41  1  0      
 40 97  1  0      
 41 42  2  0      
 49 41  1  0      
 42 43  1  0      
 43 44  2  0      
 43 48  1  0      
 44 45  1  0      
 44 98  1  0      
 45 46  2  0      
 45 50  1  0      
 46 47  1  0      
 46 99  1  0      
 47 48  2  0      
 47100  1  0      
 49 48  1  0      
 49101  1  0      
 50 51  2  0      
 58 50  1  0      
 51 52  1  0      
 51102  1  0      
 52 53  2  0      
 52103  1  0      
 54 53  1  0      
 57 53  1  0      
 54 55  1  0      
 54104  1  0      
 55 56  2  0      
 55 59  1  0      
 56 57  1  0      
 57 58  2  0      
 58105  1  0      
 59 60  1  0      
 59 64  2  0      
 60 61  2  0      
 60106  1  0      
 61 62  1  0      
 61107  1  0      
 62 63  2  0      
 62108  1  0      
 63 64  1  0      
 63 65  1  0      
 64109  1  0      
 65 66  2  0      
 73 65  1  0      
 66 67  1  0      
 67 68  2  0      
 67 72  1  0      
 68 69  1  0      
 68110  1  0      
 69 70  2  0      
 69 74  1  0      
 70 71  1  0      
 70111  1  0      
 71 72  2  0      
 71112  1  0      
 73 72  1  0      
 73113  1  0      
 74114  1  0      
 74115  1  0      
 74116  1  0      
M  END
$$$$
