Fragment
  Chem3D Core 21.007272619293D

 74 76  0  0  0  0  0  0  0  0999 V2000
   -1.0879   11.8339   -2.0503 C   0  0  0  0  0  0  0  0  0  0  0  0
   -0.4813   10.6128   -1.7240 O   0  0  0  0  0  0  0  0  0  0  0  0
   -1.5159    9.6982   -1.4818 C   0  0  0  0  0  0  0  0  0  0  0  0
   -0.9223    8.3432   -1.1198 C   0  0  0  0  0  0  0  0  0  0  0  0
   -1.9570    7.4286   -0.8776 O   0  0  0  0  0  0  0  0  0  0  0  0
   -1.4441    6.2347   -0.5587 C   0  0  0  0  0  0  0  0  0  0  0  0
   -0.2463    6.0836   -0.5166 O   0  0  0  0  0  0  0  0  0  0  0  0
   -2.2658    5.1981   -0.2837 C   0  0  0  0  0  0  0  0  0  0  0  0
   -1.7311    3.9535    0.0488 C   0  0  0  0  0  0  0  0  0  0  0  0
   -2.5795    2.8833    0.3326 C   0  0  0  0  0  0  0  0  0  0  0  0
   -3.9625    3.0578    0.2840 C   0  0  0  0  0  0  0  0  0  0  0  0
   -4.4972    4.3024   -0.0484 C   0  0  0  0  0  0  0  0  0  0  0  0
   -3.6488    5.3726   -0.3323 C   0  0  0  0  0  0  0  0  0  0  0  0
   -4.7841    2.0213    0.5589 C   0  0  0  0  0  0  0  0  0  0  0  0
   -5.9819    2.1724    0.5168 O   0  0  0  0  0  0  0  0  0  0  0  0
   -4.2712    0.8273    0.8778 O   0  0  0  0  0  0  0  0  0  0  0  0
   -5.3059   -0.0873    1.1199 C   0  0  0  0  0  0  0  0  0  0  0  0
   -4.7123   -1.4423    1.4818 C   0  0  0  0  0  0  0  0  0  0  0  0
   -5.7469   -2.3569    1.7239 O   0  0  0  0  0  0  0  0  0  0  0  0
   -5.2340   -3.5509    2.0428 C   0  0  0  0  0  0  0  0  0  0  0  0
   -5.9687   -4.4777    2.2886 O   0  0  0  0  0  0  0  0  0  0  0  0
   -3.8945   -3.7199    2.0898 C   0  0  0  0  0  0  0  0  0  0  0  0
   -3.2937   -4.7390    1.3509 C   0  0  0  0  0  0  0  0  0  0  0  0
   -1.9107   -4.9135    1.3996 C   0  0  0  0  0  0  0  0  0  0  0  0
   -1.1285   -4.0688    2.1871 C   0  0  0  0  0  0  0  0  0  0  0  0
   -1.7292   -3.0497    2.9260 C   0  0  0  0  0  0  0  0  0  0  0  0
   -3.1123   -2.8752    2.8773 C   0  0  0  0  0  0  0  0  0  0  0  0
    0.2111   -4.2379    2.2343 C   0  0  0  0  0  0  0  0  0  0  0  0
    0.8886   -3.5063    2.9163 O   0  0  0  0  0  0  0  0  0  0  0  0
    0.7874   -5.2155    1.5255 O   0  0  0  0  0  0  0  0  0  0  0  0
    2.1744   -5.1986    1.7290 C   0  0  0  0  0  0  0  0  0  0  0  0
    2.8208   -6.3143    0.9186 C   0  0  0  0  0  0  0  0  0  0  0  0
    4.2079   -6.2974    1.1221 O   0  0  0  0  0  0  0  0  0  0  0  0
    4.7841   -7.2750    0.4134 C   0  0  0  0  0  0  0  0  0  0  0  0
    5.9819   -7.4262    0.4555 O   0  0  0  0  0  0  0  0  0  0  0  0
    4.0265   -8.0931   -0.3494 C   0  0  0  0  0  0  0  0  0  0  0  0
    4.0656   -9.4722   -0.1443 C   0  0  0  0  0  0  0  0  0  0  0  0
    3.2834  -10.3169   -0.9319 C   0  0  0  0  0  0  0  0  0  0  0  0
    2.4621   -9.7824   -1.9245 C   0  0  0  0  0  0  0  0  0  0  0  0
    2.4229   -8.4034   -2.1296 C   0  0  0  0  0  0  0  0  0  0  0  0
    3.2051   -7.5587   -1.3420 C   0  0  0  0  0  0  0  0  0  0  0  0
    1.7045  -10.6006   -2.6873 C   0  0  0  0  0  0  0  0  0  0  0  0
    0.9931  -10.1377   -3.5470 O   0  0  0  0  0  0  0  0  0  0  0  0
    1.7468  -12.0926   -2.4655 C   0  0  0  0  0  0  0  0  0  0  0  0
   -0.3028   12.5965   -2.2524 H   0  0  0  0  0  0  0  0  0  0  0  0
   -1.7195   11.7030   -2.9574 H   0  0  0  0  0  0  0  0  0  0  0  0
   -1.7228   12.1713   -1.2007 H   0  0  0  0  0  0  0  0  0  0  0  0
   -2.1444   10.0643   -0.6394 H   0  0  0  0  0  0  0  0  0  0  0  0
   -2.1423    9.5963   -2.3961 H   0  0  0  0  0  0  0  0  0  0  0  0
   -0.2938    7.9770   -1.9623 H   0  0  0  0  0  0  0  0  0  0  0  0
   -0.2959    8.4451   -0.2055 H   0  0  0  0  0  0  0  0  0  0  0  0
   -0.6404    3.8160    0.0872 H   0  0  0  0  0  0  0  0  0  0  0  0
   -2.1578    1.9017    0.5948 H   0  0  0  0  0  0  0  0  0  0  0  0
   -5.5878    4.4400   -0.0866 H   0  0  0  0  0  0  0  0  0  0  0  0
   -4.0704    6.3542   -0.5945 H   0  0  0  0  0  0  0  0  0  0  0  0
   -5.9344    0.2788    1.9624 H   0  0  0  0  0  0  0  0  0  0  0  0
   -5.9323   -0.1891    0.2056 H   0  0  0  0  0  0  0  0  0  0  0  0
   -4.0838   -1.8084    0.6393 H   0  0  0  0  0  0  0  0  0  0  0  0
   -4.0859   -1.3405    2.3961 H   0  0  0  0  0  0  0  0  0  0  0  0
   -3.9106   -5.4051    0.7298 H   0  0  0  0  0  0  0  0  0  0  0  0
   -1.4369   -5.7173    0.8170 H   0  0  0  0  0  0  0  0  0  0  0  0
   -1.1123   -2.3835    3.5470 H   0  0  0  0  0  0  0  0  0  0  0  0
   -3.5861   -2.0715    3.4600 H   0  0  0  0  0  0  0  0  0  0  0  0
    2.5849   -4.2172    1.4015 H   0  0  0  0  0  0  0  0  0  0  0  0
    2.3925   -5.3510    2.8097 H   0  0  0  0  0  0  0  0  0  0  0  0
    2.4103   -7.2957    1.2461 H   0  0  0  0  0  0  0  0  0  0  0  0
    2.6027   -6.1619   -0.1621 H   0  0  0  0  0  0  0  0  0  0  0  0
    4.7133   -9.8937    0.6386 H   0  0  0  0  0  0  0  0  0  0  0  0
    3.3143  -11.4045   -0.7702 H   0  0  0  0  0  0  0  0  0  0  0  0
    1.7751   -7.9819   -2.9123 H   0  0  0  0  0  0  0  0  0  0  0  0
    3.1743   -6.4711   -1.5037 H   0  0  0  0  0  0  0  0  0  0  0  0
    2.4536  -12.3252   -1.6378 H   0  0  0  0  0  0  0  0  0  0  0  0
    0.7297  -12.4563   -2.1973 H   0  0  0  0  0  0  0  0  0  0  0  0
    2.0883  -12.5965   -3.3973 H   0  0  0  0  0  0  0  0  0  0  0  0
  1  2  1  0      
  1 45  1  0      
  1 46  1  0      
  1 47  1  0      
  2  3  1  0      
  3  4  1  0      
  3 48  1  0      
  3 49  1  0      
  4  5  1  0      
  4 50  1  0      
  4 51  1  0      
  5  6  1  0      
  6  7  2  0      
  6  8  1  0      
  8  9  1  0      
  8 13  2  0      
  9 10  2  0      
  9 52  1  0      
 10 11  1  0      
 10 53  1  0      
 11 12  2  0      
 11 14  1  0      
 12 13  1  0      
 12 54  1  0      
 13 55  1  0      
 14 15  2  0      
 14 16  1  0      
 16 17  1  0      
 17 18  1  0      
 17 56  1  0      
 17 57  1  0      
 18 19  1  0      
 18 58  1  0      
 18 59  1  0      
 19 20  1  0      
 20 21  2  0      
 20 22  1  0      
 22 23  1  0      
 22 27  2  0      
 23 24  2  0      
 23 60  1  0      
 24 25  1  0      
 24 61  1  0      
 25 26  2  0      
 25 28  1  0      
 26 27  1  0      
 26 62  1  0      
 27 63  1  0      
 28 29  2  0      
 28 30  1  0      
 30 31  1  0      
 31 32  1  0      
 31 64  1  0      
 31 65  1  0      
 32 33  1  0      
 32 66  1  0      
 32 67  1  0      
 33 34  1  0      
 34 35  2  0      
 34 36  1  0      
 36 37  1  0      
 36 41  2  0      
 37 38  2  0      
 37 68  1  0      
 38 39  1  0      
 38 69  1  0      
 39 40  2  0      
 39 42  1  0      
 40 41  1  0      
 40 70  1  0      
 41 71  1  0      
 42 43  2  0      
 42 44  1  0      
 44 72  1  0      
 44 73  1  0      
 44 74  1  0      
M  END
$$$$
