Fragment
  Chem3D Core 21.007272619273D

 20 19  0  0  0  0  0  0  0  0999 V2000
    1.8979   -0.9007    0.4698 C   0  0  0  0  0  0  0  0  0  0  0  0
    0.5791   -1.6624    0.4698 C   0  0  0  0  0  0  0  0  0  0  0  0
   -0.5791   -0.6735    0.4698 C   0  0  0  0  0  0  0  0  0  0  0  0
   -0.4997    0.2025   -0.7735 C   0  0  0  0  0  0  0  0  0  0  0  0
   -0.3664    1.6621   -0.3594 C   0  0  0  0  0  0  0  0  0  0  0  0
   -1.8972   -1.4365    0.4689 C   0  0  0  0  0  0  0  0  0  0  0  0
    2.7444   -1.6234    0.4698 H   0  0  0  0  0  0  0  0  0  0  0  0
    1.9566   -0.2615   -0.4395 H   0  0  0  0  0  0  0  0  0  0  0  0
    1.9566   -0.2609    1.3786 H   0  0  0  0  0  0  0  0  0  0  0  0
    0.5205   -2.3016    1.3790 H   0  0  0  0  0  0  0  0  0  0  0  0
    0.5204   -2.3023   -0.4390 H   0  0  0  0  0  0  0  0  0  0  0  0
   -0.5205   -0.0337    1.3786 H   0  0  0  0  0  0  0  0  0  0  0  0
    0.3862   -0.0931   -1.3790 H   0  0  0  0  0  0  0  0  0  0  0  0
   -1.4244    0.0718   -1.3790 H   0  0  0  0  0  0  0  0  0  0  0  0
   -0.3083    2.3023   -1.2680 H   0  0  0  0  0  0  0  0  0  0  0  0
   -1.2522    1.9577    0.2461 H   0  0  0  0  0  0  0  0  0  0  0  0
    0.5583    1.7928    0.2461 H   0  0  0  0  0  0  0  0  0  0  0  0
   -2.7444   -0.7147    0.4689 H   0  0  0  0  0  0  0  0  0  0  0  0
   -1.9556   -2.0762    1.3778 H   0  0  0  0  0  0  0  0  0  0  0  0
   -1.9549   -2.0760   -0.4403 H   0  0  0  0  0  0  0  0  0  0  0  0
  1  2  1  0      
  1  7  1  0      
  1  8  1  0      
  1  9  1  0      
  2  3  1  0      
  2 10  1  0      
  2 11  1  0      
  3  4  1  0      
  3  6  1  0      
  3 12  1  0      
  4  5  1  0      
  4 13  1  0      
  4 14  1  0      
  5 15  1  0      
  5 16  1  0      
  5 17  1  0      
  6 18  1  0      
  6 19  1  0      
  6 20  1  0      
M  END
$$$$
