Fragment
  Chem3D Core 21.007272619313D

182184  0  0  0  0  0  0  0  0999 V2000
   -9.6180   17.3960   -2.1891 C   0  0  0  0  0  0  0  0  0  0  0  0
   -9.1514   16.1187   -1.8480 O   0  0  0  0  0  0  0  0  0  0  0  0
   -7.7509   16.1817   -1.8626 C   0  0  0  0  0  0  0  0  0  0  0  0
   -7.1769   14.8187   -1.4985 C   0  0  0  0  0  0  0  0  0  0  0  0
   -5.6555   14.8871   -1.5144 C   0  0  0  0  0  0  0  0  0  0  0  0
   -5.0816   13.5242   -1.1504 C   0  0  0  0  0  0  0  0  0  0  0  0
   -3.6810   13.5871   -1.1650 O   0  0  0  0  0  0  0  0  0  0  0  0
   -3.1682   12.3932   -0.8460 C   0  0  0  0  0  0  0  0  0  0  0  0
   -1.9704   12.2421   -0.8040 O   0  0  0  0  0  0  0  0  0  0  0  0
   -4.0859   11.2354   -0.5389 C   0  0  0  0  0  0  0  0  0  0  0  0
   -3.2556   10.0021   -0.2089 C   0  0  0  0  0  0  0  0  0  0  0  0
   -4.1819    8.8336    0.1011 C   0  0  0  0  0  0  0  0  0  0  0  0
   -3.3515    7.6002    0.4310 C   0  0  0  0  0  0  0  0  0  0  0  0
   -4.2693    6.4425    0.7382 C   0  0  0  0  0  0  0  0  0  0  0  0
   -5.4670    6.5936    0.6961 O   0  0  0  0  0  0  0  0  0  0  0  0
   -3.7564    5.2486    1.0571 O   0  0  0  0  0  0  0  0  0  0  0  0
   -4.7910    4.3340    1.2993 C   0  0  0  0  0  0  0  0  0  0  0  0
   -4.1974    2.9790    1.6613 C   0  0  0  0  0  0  0  0  0  0  0  0
   -5.3214    1.9855    1.9244 C   0  0  0  0  0  0  0  0  0  0  0  0
   -4.7278    0.6304    2.2864 C   0  0  0  0  0  0  0  0  0  0  0  0
   -5.7624   -0.2841    2.5286 O   0  0  0  0  0  0  0  0  0  0  0  0
   -5.2495   -1.4781    2.8475 C   0  0  0  0  0  0  0  0  0  0  0  0
   -4.0518   -1.6292    2.8896 O   0  0  0  0  0  0  0  0  0  0  0  0
   -6.0712   -2.5146    3.1225 C   0  0  0  0  0  0  0  0  0  0  0  0
   -5.5365   -3.7592    3.4550 C   0  0  0  0  0  0  0  0  0  0  0  0
   -6.3849   -4.8294    3.7388 C   0  0  0  0  0  0  0  0  0  0  0  0
   -7.7679   -4.6549    3.6902 C   0  0  0  0  0  0  0  0  0  0  0  0
   -8.3026   -3.4103    3.3578 C   0  0  0  0  0  0  0  0  0  0  0  0
   -7.4542   -2.3401    3.0739 C   0  0  0  0  0  0  0  0  0  0  0  0
   -8.5896   -5.6915    3.9651 C   0  0  0  0  0  0  0  0  0  0  0  0
   -9.7874   -5.5404    3.9231 O   0  0  0  0  0  0  0  0  0  0  0  0
   -8.0767   -6.8854    4.2840 O   0  0  0  0  0  0  0  0  0  0  0  0
   -9.1114   -7.8000    4.5261 C   0  0  0  0  0  0  0  0  0  0  0  0
   -8.5177   -9.1551    4.8880 C   0  0  0  0  0  0  0  0  0  0  0  0
   -9.6417  -10.1486    5.1510 C   0  0  0  0  0  0  0  0  0  0  0  0
   -9.0481  -11.5037    5.5129 C   0  0  0  0  0  0  0  0  0  0  0  0
  -10.0827  -12.4183    5.7550 O   0  0  0  0  0  0  0  0  0  0  0  0
   -9.5698  -13.6122    6.0739 C   0  0  0  0  0  0  0  0  0  0  0  0
  -10.3045  -14.5390    6.3197 O   0  0  0  0  0  0  0  0  0  0  0  0
   -8.0736  -13.8009    6.1264 C   0  0  0  0  0  0  0  0  0  0  0  0
   -7.7559  -15.2401    6.5103 C   0  0  0  0  0  0  0  0  0  0  0  0
   -6.2458  -15.4306    6.5634 C   0  0  0  0  0  0  0  0  0  0  0  0
   -5.9281  -16.8698    6.9473 C   0  0  0  0  0  0  0  0  0  0  0  0
   -4.4319  -17.0585    6.9999 C   0  0  0  0  0  0  0  0  0  0  0  0
   -3.9688  -18.1365    7.2878 O   0  0  0  0  0  0  0  0  0  0  0  0
   -3.6181  -16.0319    6.7276 O   0  0  0  0  0  0  0  0  0  0  0  0
   -2.2814  -16.4402    6.8384 C   0  0  0  0  0  0  0  0  0  0  0  0
   -1.3636  -15.2654    6.5268 C   0  0  0  0  0  0  0  0  0  0  0  0
    0.0884  -15.7089    6.6472 C   0  0  0  0  0  0  0  0  0  0  0  0
    1.0063  -14.5341    6.3356 C   0  0  0  0  0  0  0  0  0  0  0  0
    2.3429  -14.9423    6.4464 O   0  0  0  0  0  0  0  0  0  0  0  0
    3.1567  -13.9157    6.1742 C   0  0  0  0  0  0  0  0  0  0  0  0
    4.3545  -14.0668    6.2162 O   0  0  0  0  0  0  0  0  0  0  0  0
    2.6388  -12.7102    5.8522 C   0  0  0  0  0  0  0  0  0  0  0  0
    3.0284  -12.0764    4.6724 C   0  0  0  0  0  0  0  0  0  0  0  0
    2.4938  -10.8317    4.3400 C   0  0  0  0  0  0  0  0  0  0  0  0
    1.5696  -10.2209    5.1875 C   0  0  0  0  0  0  0  0  0  0  0  0
    1.1799  -10.8547    6.3672 C   0  0  0  0  0  0  0  0  0  0  0  0
    1.7146  -12.0994    6.6996 C   0  0  0  0  0  0  0  0  0  0  0  0
    1.0518   -9.0153    4.8655 C   0  0  0  0  0  0  0  0  0  0  0  0
    0.2513   -8.4863    5.5995 O   0  0  0  0  0  0  0  0  0  0  0  0
    1.4255   -8.4073    3.7338 O   0  0  0  0  0  0  0  0  0  0  0  0
    0.7628   -7.1779    3.6112 C   0  0  0  0  0  0  0  0  0  0  0  0
    1.1947   -6.4940    2.3208 C   0  0  0  0  0  0  0  0  0  0  0  0
    0.4747   -5.1585    2.1876 C   0  0  0  0  0  0  0  0  0  0  0  0
    0.9066   -4.4746    0.8971 C   0  0  0  0  0  0  0  0  0  0  0  0
    0.2439   -3.2452    0.7745 O   0  0  0  0  0  0  0  0  0  0  0  0
    0.6177   -2.6372   -0.3572 C   0  0  0  0  0  0  0  0  0  0  0  0
    0.1547   -1.5592   -0.6450 O   0  0  0  0  0  0  0  0  0  0  0  0
    1.6176   -3.2980   -1.2740 C   0  0  0  0  0  0  0  0  0  0  0  0
    1.8684   -2.4043   -2.4815 C   0  0  0  0  0  0  0  0  0  0  0  0
    2.8776   -3.0713   -3.4068 C   0  0  0  0  0  0  0  0  0  0  0  0
    3.1283   -2.1776   -4.6142 C   0  0  0  0  0  0  0  0  0  0  0  0
    4.1282   -2.8385   -5.5310 C   0  0  0  0  0  0  0  0  0  0  0  0
    4.4657   -2.2895   -6.5528 O   0  0  0  0  0  0  0  0  0  0  0  0
    4.6411   -4.0325   -5.2122 O   0  0  0  0  0  0  0  0  0  0  0  0
    5.5409   -4.4458   -6.2047 C   0  0  0  0  0  0  0  0  0  0  0  0
    6.1189   -5.8049   -5.8328 C   0  0  0  0  0  0  0  0  0  0  0  0
    7.0964   -6.2539   -6.9110 C   0  0  0  0  0  0  0  0  0  0  0  0
    7.6744   -7.6130   -6.5392 C   0  0  0  0  0  0  0  0  0  0  0  0
    8.5742   -8.0263   -7.5316 O   0  0  0  0  0  0  0  0  0  0  0  0
    9.0871   -9.2203   -7.2128 C   0  0  0  0  0  0  0  0  0  0  0  0
    9.8875   -9.7493   -7.9467 O   0  0  0  0  0  0  0  0  0  0  0  0
    8.7096   -9.8342   -6.0701 C   0  0  0  0  0  0  0  0  0  0  0  0
    9.6680  -10.1956   -5.1232 C   0  0  0  0  0  0  0  0  0  0  0  0
    9.2783  -10.8295   -3.9434 C   0  0  0  0  0  0  0  0  0  0  0  0
    7.9303  -11.1020   -3.7106 C   0  0  0  0  0  0  0  0  0  0  0  0
    6.9720  -10.7406   -4.6574 C   0  0  0  0  0  0  0  0  0  0  0  0
    7.3617  -10.1067   -5.8372 C   0  0  0  0  0  0  0  0  0  0  0  0
    7.5529  -11.7160   -2.5679 C   0  0  0  0  0  0  0  0  0  0  0  0
    6.3854  -11.9520   -2.3662 O   0  0  0  0  0  0  0  0  0  0  0  0
    8.5896  -12.1071   -1.5435 C   0  0  0  0  0  0  0  0  0  0  0  0
  -10.7310   17.3967   -2.1910 H   0  0  0  0  0  0  0  0  0  0  0  0
   -9.2483   18.1365   -1.4449 H   0  0  0  0  0  0  0  0  0  0  0  0
   -9.2453   17.6688   -3.2017 H   0  0  0  0  0  0  0  0  0  0  0  0
   -7.4036   16.4701   -2.8800 H   0  0  0  0  0  0  0  0  0  0  0  0
   -7.4059   16.9388   -1.1233 H   0  0  0  0  0  0  0  0  0  0  0  0
   -7.5242   14.5303   -0.4812 H   0  0  0  0  0  0  0  0  0  0  0  0
   -7.5218   14.0616   -2.2378 H   0  0  0  0  0  0  0  0  0  0  0  0
   -5.3083   15.1755   -2.5318 H   0  0  0  0  0  0  0  0  0  0  0  0
   -5.3106   15.6442   -0.7752 H   0  0  0  0  0  0  0  0  0  0  0  0
   -5.4288   13.2357   -0.1330 H   0  0  0  0  0  0  0  0  0  0  0  0
   -5.4265   12.7671   -1.8896 H   0  0  0  0  0  0  0  0  0  0  0  0
   -4.7287   11.4933    0.3324 H   0  0  0  0  0  0  0  0  0  0  0  0
   -4.7267   11.0251   -1.4243 H   0  0  0  0  0  0  0  0  0  0  0  0
   -2.6128    9.7443   -1.0802 H   0  0  0  0  0  0  0  0  0  0  0  0
   -2.6149   10.2124    0.6765 H   0  0  0  0  0  0  0  0  0  0  0  0
   -4.8246    9.0914    0.9724 H   0  0  0  0  0  0  0  0  0  0  0  0
   -4.8226    8.6233   -0.7844 H   0  0  0  0  0  0  0  0  0  0  0  0
   -2.7088    7.3424   -0.4403 H   0  0  0  0  0  0  0  0  0  0  0  0
   -2.7108    7.8106    1.3165 H   0  0  0  0  0  0  0  0  0  0  0  0
   -5.4195    4.7001    2.1418 H   0  0  0  0  0  0  0  0  0  0  0  0
   -5.4175    4.2321    0.3850 H   0  0  0  0  0  0  0  0  0  0  0  0
   -3.5690    2.6128    0.8189 H   0  0  0  0  0  0  0  0  0  0  0  0
   -3.5710    3.0809    2.5756 H   0  0  0  0  0  0  0  0  0  0  0  0
   -5.9498    2.3516    2.7669 H   0  0  0  0  0  0  0  0  0  0  0  0
   -5.9478    1.8836    1.0101 H   0  0  0  0  0  0  0  0  0  0  0  0
   -4.0993    0.2643    1.4439 H   0  0  0  0  0  0  0  0  0  0  0  0
   -4.1013    0.7323    3.2007 H   0  0  0  0  0  0  0  0  0  0  0  0
   -4.4458   -3.8968    3.4935 H   0  0  0  0  0  0  0  0  0  0  0  0
   -5.9633   -5.8110    4.0010 H   0  0  0  0  0  0  0  0  0  0  0  0
   -9.3933   -3.2727    3.3196 H   0  0  0  0  0  0  0  0  0  0  0  0
   -7.8759   -1.3585    2.8117 H   0  0  0  0  0  0  0  0  0  0  0  0
   -9.7398   -7.4339    5.3686 H   0  0  0  0  0  0  0  0  0  0  0  0
   -9.7378   -7.9018    3.6118 H   0  0  0  0  0  0  0  0  0  0  0  0
   -7.8893   -9.5211    4.0455 H   0  0  0  0  0  0  0  0  0  0  0  0
   -7.8913   -9.0532    5.8024 H   0  0  0  0  0  0  0  0  0  0  0  0
  -10.2701   -9.7825    5.9935 H   0  0  0  0  0  0  0  0  0  0  0  0
  -10.2681  -10.2504    4.2367 H   0  0  0  0  0  0  0  0  0  0  0  0
   -8.4196  -11.8697    4.6704 H   0  0  0  0  0  0  0  0  0  0  0  0
   -8.4217  -11.4018    6.4273 H   0  0  0  0  0  0  0  0  0  0  0  0
   -7.6369  -13.5791    5.1270 H   0  0  0  0  0  0  0  0  0  0  0  0
   -7.6391  -13.1106    6.8837 H   0  0  0  0  0  0  0  0  0  0  0  0
   -8.1926  -15.4620    7.5098 H   0  0  0  0  0  0  0  0  0  0  0  0
   -8.1904  -15.9305    5.7531 H   0  0  0  0  0  0  0  0  0  0  0  0
   -5.8091  -15.2088    5.5640 H   0  0  0  0  0  0  0  0  0  0  0  0
   -5.8113  -14.7403    7.3207 H   0  0  0  0  0  0  0  0  0  0  0  0
   -6.3648  -17.0916    7.9467 H   0  0  0  0  0  0  0  0  0  0  0  0
   -6.3626  -17.5601    6.1901 H   0  0  0  0  0  0  0  0  0  0  0  0
   -2.0877  -16.7969    7.8747 H   0  0  0  0  0  0  0  0  0  0  0  0
   -2.0848  -17.2656    6.1181 H   0  0  0  0  0  0  0  0  0  0  0  0
   -1.5573  -14.9086    5.4905 H   0  0  0  0  0  0  0  0  0  0  0  0
   -1.5602  -14.4400    7.2472 H   0  0  0  0  0  0  0  0  0  0  0  0
    0.2821  -16.0656    7.6835 H   0  0  0  0  0  0  0  0  0  0  0  0
    0.2850  -16.5343    5.9269 H   0  0  0  0  0  0  0  0  0  0  0  0
    0.8126  -14.1773    5.2993 H   0  0  0  0  0  0  0  0  0  0  0  0
    0.8097  -13.7087    7.0559 H   0  0  0  0  0  0  0  0  0  0  0  0
    3.7573  -12.5582    4.0040 H   0  0  0  0  0  0  0  0  0  0  0  0
    2.8011  -10.3318    3.4096 H   0  0  0  0  0  0  0  0  0  0  0  0
    0.4509  -10.3730    7.0355 H   0  0  0  0  0  0  0  0  0  0  0  0
    1.4073  -12.5993    7.6301 H   0  0  0  0  0  0  0  0  0  0  0  0
   -0.3365   -7.3503    3.5892 H   0  0  0  0  0  0  0  0  0  0  0  0
    1.0203   -6.5297    4.4786 H   0  0  0  0  0  0  0  0  0  0  0  0
    2.2940   -6.3216    2.3428 H   0  0  0  0  0  0  0  0  0  0  0  0
    0.9372   -7.1422    1.4534 H   0  0  0  0  0  0  0  0  0  0  0  0
   -0.6246   -5.3309    2.1655 H   0  0  0  0  0  0  0  0  0  0  0  0
    0.7322   -4.5103    3.0550 H   0  0  0  0  0  0  0  0  0  0  0  0
    2.0060   -4.3022    0.9192 H   0  0  0  0  0  0  0  0  0  0  0  0
    0.6492   -5.1228    0.0298 H   0  0  0  0  0  0  0  0  0  0  0  0
    2.5733   -3.4576   -0.7263 H   0  0  0  0  0  0  0  0  0  0  0  0
    1.2164   -4.2785   -1.6152 H   0  0  0  0  0  0  0  0  0  0  0  0
    0.9126   -2.2448   -3.0291 H   0  0  0  0  0  0  0  0  0  0  0  0
    2.2696   -1.4239   -2.1402 H   0  0  0  0  0  0  0  0  0  0  0  0
    3.8333   -3.2309   -2.8591 H   0  0  0  0  0  0  0  0  0  0  0  0
    2.4763   -4.0518   -3.7480 H   0  0  0  0  0  0  0  0  0  0  0  0
    2.1726   -2.0181   -5.1619 H   0  0  0  0  0  0  0  0  0  0  0  0
    3.5296   -1.1972   -4.2730 H   0  0  0  0  0  0  0  0  0  0  0  0
    5.0081   -4.5237   -7.1787 H   0  0  0  0  0  0  0  0  0  0  0  0
    6.3655   -3.7030   -6.2902 H   0  0  0  0  0  0  0  0  0  0  0  0
    6.6518   -5.7270   -4.8588 H   0  0  0  0  0  0  0  0  0  0  0  0
    5.2944   -6.5476   -5.7473 H   0  0  0  0  0  0  0  0  0  0  0  0
    6.5635   -6.3318   -7.8850 H   0  0  0  0  0  0  0  0  0  0  0  0
    7.9209   -5.5111   -6.9965 H   0  0  0  0  0  0  0  0  0  0  0  0
    8.2072   -7.5351   -5.5651 H   0  0  0  0  0  0  0  0  0  0  0  0
    6.8499   -8.3557   -6.4536 H   0  0  0  0  0  0  0  0  0  0  0  0
   10.7310   -9.9806   -5.3068 H   0  0  0  0  0  0  0  0  0  0  0  0
   10.0340  -11.1146   -3.1967 H   0  0  0  0  0  0  0  0  0  0  0  0
    5.9089  -10.9554   -4.4737 H   0  0  0  0  0  0  0  0  0  0  0  0
    6.6059   -9.8217   -6.5839 H   0  0  0  0  0  0  0  0  0  0  0  0
    9.5995  -11.8097   -1.9048 H   0  0  0  0  0  0  0  0  0  0  0  0
    8.3733  -11.5905   -0.5817 H   0  0  0  0  0  0  0  0  0  0  0  0
    8.5608  -13.2089   -1.3886 H   0  0  0  0  0  0  0  0  0  0  0  0
  1  2  1  0      
  1 93  1  0      
  1 94  1  0      
  1 95  1  0      
  2  3  1  0      
  3  4  1  0      
  3 96  1  0      
  3 97  1  0      
  4  5  1  0      
  4 98  1  0      
  4 99  1  0      
  5  6  1  0      
  5100  1  0      
  5101  1  0      
  6  7  1  0      
  6102  1  0      
  6103  1  0      
  7  8  1  0      
  8  9  2  0      
  8 10  1  0      
 10 11  1  0      
 10104  1  0      
 10105  1  0      
 11 12  1  0      
 11106  1  0      
 11107  1  0      
 12 13  1  0      
 12108  1  0      
 12109  1  0      
 13 14  1  0      
 13110  1  0      
 13111  1  0      
 14 15  2  0      
 14 16  1  0      
 16 17  1  0      
 17 18  1  0      
 17112  1  0      
 17113  1  0      
 18 19  1  0      
 18114  1  0      
 18115  1  0      
 19 20  1  0      
 19116  1  0      
 19117  1  0      
 20 21  1  0      
 20118  1  0      
 20119  1  0      
 21 22  1  0      
 22 23  2  0      
 22 24  1  0      
 24 25  1  0      
 24 29  2  0      
 25 26  2  0      
 25120  1  0      
 26 27  1  0      
 26121  1  0      
 27 28  2  0      
 27 30  1  0      
 28 29  1  0      
 28122  1  0      
 29123  1  0      
 30 31  2  0      
 30 32  1  0      
 32 33  1  0      
 33 34  1  0      
 33124  1  0      
 33125  1  0      
 34 35  1  0      
 34126  1  0      
 34127  1  0      
 35 36  1  0      
 35128  1  0      
 35129  1  0      
 36 37  1  0      
 36130  1  0      
 36131  1  0      
 37 38  1  0      
 38 39  2  0      
 38 40  1  0      
 40 41  1  0      
 40132  1  0      
 40133  1  0      
 41 42  1  0      
 41134  1  0      
 41135  1  0      
 42 43  1  0      
 42136  1  0      
 42137  1  0      
 43 44  1  0      
 43138  1  0      
 43139  1  0      
 44 45  2  0      
 44 46  1  0      
 46 47  1  0      
 47 48  1  0      
 47140  1  0      
 47141  1  0      
 48 49  1  0      
 48142  1  0      
 48143  1  0      
 49 50  1  0      
 49144  1  0      
 49145  1  0      
 50 51  1  0      
 50146  1  0      
 50147  1  0      
 51 52  1  0      
 52 53  2  0      
 52 54  1  0      
 54 55  1  0      
 54 59  2  0      
 55 56  2  0      
 55148  1  0      
 56 57  1  0      
 56149  1  0      
 57 58  2  0      
 57 60  1  0      
 58 59  1  0      
 58150  1  0      
 59151  1  0      
 60 61  2  0      
 60 62  1  0      
 62 63  1  0      
 63 64  1  0      
 63152  1  0      
 63153  1  0      
 64 65  1  0      
 64154  1  0      
 64155  1  0      
 65 66  1  0      
 65156  1  0      
 65157  1  0      
 66 67  1  0      
 66158  1  0      
 66159  1  0      
 67 68  1  0      
 68 69  2  0      
 68 70  1  0      
 70 71  1  0      
 70160  1  0      
 70161  1  0      
 71 72  1  0      
 71162  1  0      
 71163  1  0      
 72 73  1  0      
 72164  1  0      
 72165  1  0      
 73 74  1  0      
 73166  1  0      
 73167  1  0      
 74 75  2  0      
 74 76  1  0      
 76 77  1  0      
 77 78  1  0      
 77168  1  0      
 77169  1  0      
 78 79  1  0      
 78170  1  0      
 78171  1  0      
 79 80  1  0      
 79172  1  0      
 79173  1  0      
 80 81  1  0      
 80174  1  0      
 80175  1  0      
 81 82  1  0      
 82 83  2  0      
 82 84  1  0      
 84 85  1  0      
 84 89  2  0      
 85 86  2  0      
 85176  1  0      
 86 87  1  0      
 86177  1  0      
 87 88  2  0      
 87 90  1  0      
 88 89  1  0      
 88178  1  0      
 89179  1  0      
 90 91  2  0      
 90 92  1  0      
 92180  1  0      
 92181  1  0      
 92182  1  0      
M  END
$$$$
