Fragment
  Chem3D Core 21.007272619283D

 27 26  0  0  0  0  0  0  0  0999 V2000
   -0.0856   -1.5095   -2.0727 C   0  0  0  0  0  0  0  0  0  0  0  0
    1.2335   -0.7482   -2.0727 C   0  0  0  0  0  0  0  0  0  0  0  0
    0.9561    0.7493   -2.0727 C   0  0  0  0  0  0  0  0  0  0  0  0
    0.1650    1.1151   -0.8408 C   0  0  0  0  0  0  0  0  0  0  0  0
   -0.1595    2.2630   -0.6501 O   0  0  0  0  0  0  0  0  0  0  0  0
   -0.1848    0.1461    0.0607 N   0  0  0  0  0  0  0  0  0  0  0  0
   -0.9450    0.4976    1.2444 C   0  0  0  0  0  0  0  0  0  0  0  0
   -2.2756    1.1118    0.8303 C   0  0  0  0  0  0  0  0  0  0  0  0
   -1.2007   -0.7545    2.0730 C   0  0  0  0  0  0  0  0  0  0  0  0
    2.2759    1.5093   -2.0718 C   0  0  0  0  0  0  0  0  0  0  0  0
    0.1171   -2.6039   -2.0727 H   0  0  0  0  0  0  0  0  0  0  0  0
   -0.6685   -1.2407   -1.1634 H   0  0  0  0  0  0  0  0  0  0  0  0
   -0.6691   -1.2405   -2.9815 H   0  0  0  0  0  0  0  0  0  0  0  0
    1.8163   -1.0170   -2.9819 H   0  0  0  0  0  0  0  0  0  0  0  0
    1.8169   -1.0173   -1.1639 H   0  0  0  0  0  0  0  0  0  0  0  0
    0.3726    1.0184   -2.9815 H   0  0  0  0  0  0  0  0  0  0  0  0
    0.0870   -0.8155   -0.0990 H   0  0  0  0  0  0  0  0  0  0  0  0
   -0.3694    1.2330    1.8499 H   0  0  0  0  0  0  0  0  0  0  0  0
   -2.8591    1.3816    1.7389 H   0  0  0  0  0  0  0  0  0  0  0  0
   -2.0888    2.0268    0.2248 H   0  0  0  0  0  0  0  0  0  0  0  0
   -2.8512    0.3763    0.2249 H   0  0  0  0  0  0  0  0  0  0  0  0
   -1.7841   -0.4858    2.9819 H   0  0  0  0  0  0  0  0  0  0  0  0
   -0.2282   -1.2031    2.3762 H   0  0  0  0  0  0  0  0  0  0  0  0
   -1.7762   -1.4893    1.4667 H   0  0  0  0  0  0  0  0  0  0  0  0
    2.0743    2.6039   -2.0718 H   0  0  0  0  0  0  0  0  0  0  0  0
    2.8591    1.2400   -2.9807 H   0  0  0  0  0  0  0  0  0  0  0  0
    2.8585    1.2396   -1.1626 H   0  0  0  0  0  0  0  0  0  0  0  0
  1  2  1  0      
  1 11  1  0      
  1 12  1  0      
  1 13  1  0      
  2  3  1  0      
  2 14  1  0      
  2 15  1  0      
  3  4  1  0      
  3 10  1  0      
  3 16  1  0      
  4  5  2  0      
  4  6  1  0      
  6  7  1  0      
  6 17  1  0      
  7  8  1  0      
  7  9  1  0      
  7 18  1  0      
  8 19  1  0      
  8 20  1  0      
  8 21  1  0      
  9 22  1  0      
  9 23  1  0      
  9 24  1  0      
 10 25  1  0      
 10 26  1  0      
 10 27  1  0      
M  END
$$$$
