Fragment
  Chem3D Core 21.007272619273D

 26 25  0  0  0  0  0  0  0  0999 V2000
    4.3751    0.0391    0.0000 C   0  0  0  0  0  0  0  0  0  0  0  0
    3.0561   -0.7224    0.0000 C   0  0  0  0  0  0  0  0  0  0  0  0
    1.8980    0.2668    0.0000 C   0  0  0  0  0  0  0  0  0  0  0  0
    0.5790   -0.4946    0.0000 C   0  0  0  0  0  0  0  0  0  0  0  0
   -0.5790    0.4946    0.0000 C   0  0  0  0  0  0  0  0  0  0  0  0
   -1.8980   -0.2668    0.0000 C   0  0  0  0  0  0  0  0  0  0  0  0
   -3.0561    0.7224    0.0000 C   0  0  0  0  0  0  0  0  0  0  0  0
   -4.3751   -0.0391    0.0000 C   0  0  0  0  0  0  0  0  0  0  0  0
    5.2213   -0.6838    0.0000 H   0  0  0  0  0  0  0  0  0  0  0  0
    4.4338    0.6782   -0.9093 H   0  0  0  0  0  0  0  0  0  0  0  0
    4.4339    0.6789    0.9088 H   0  0  0  0  0  0  0  0  0  0  0  0
    2.9973   -1.3615    0.9093 H   0  0  0  0  0  0  0  0  0  0  0  0
    2.9972   -1.3622   -0.9088 H   0  0  0  0  0  0  0  0  0  0  0  0
    1.9568    0.9060   -0.9093 H   0  0  0  0  0  0  0  0  0  0  0  0
    1.9569    0.9066    0.9088 H   0  0  0  0  0  0  0  0  0  0  0  0
    0.5202   -1.1338    0.9093 H   0  0  0  0  0  0  0  0  0  0  0  0
    0.5202   -1.1344   -0.9088 H   0  0  0  0  0  0  0  0  0  0  0  0
   -0.5202    1.1338   -0.9093 H   0  0  0  0  0  0  0  0  0  0  0  0
   -0.5202    1.1344    0.9088 H   0  0  0  0  0  0  0  0  0  0  0  0
   -1.9568   -0.9060    0.9093 H   0  0  0  0  0  0  0  0  0  0  0  0
   -1.9569   -0.9066   -0.9088 H   0  0  0  0  0  0  0  0  0  0  0  0
   -2.9973    1.3615   -0.9093 H   0  0  0  0  0  0  0  0  0  0  0  0
   -2.9972    1.3622    0.9088 H   0  0  0  0  0  0  0  0  0  0  0  0
   -5.2213    0.6838    0.0000 H   0  0  0  0  0  0  0  0  0  0  0  0
   -4.4338   -0.6782    0.9093 H   0  0  0  0  0  0  0  0  0  0  0  0
   -4.4339   -0.6789   -0.9088 H   0  0  0  0  0  0  0  0  0  0  0  0
  1  2  1  0      
  1  9  1  0      
  1 10  1  0      
  1 11  1  0      
  2  3  1  0      
  2 12  1  0      
  2 13  1  0      
  3  4  1  0      
  3 14  1  0      
  3 15  1  0      
  4  5  1  0      
  4 16  1  0      
  4 17  1  0      
  5  6  1  0      
  5 18  1  0      
  5 19  1  0      
  6  7  1  0      
  6 20  1  0      
  6 21  1  0      
  7  8  1  0      
  7 22  1  0      
  7 23  1  0      
  8 24  1  0      
  8 25  1  0      
  8 26  1  0      
M  END
$$$$
