Fragment
  Chem3D Core 21.007272619293D

 29 28  0  0  0  0  0  0  0  0999 V2000
   -5.9131    0.4865   -0.0000 C   0  0  0  0  0  0  0  0  0  0  0  0
   -4.6989    1.1873   -0.0000 O   0  0  0  0  0  0  0  0  0  0  0  0
   -3.6770    0.2275   -0.0000 C   0  0  0  0  0  0  0  0  0  0  0  0
   -2.3235    0.9258   -0.0000 C   0  0  0  0  0  0  0  0  0  0  0  0
   -1.3016   -0.0340   -0.0000 O   0  0  0  0  0  0  0  0  0  0  0  0
   -0.0874    0.6668   -0.0000 C   0  0  0  0  0  0  0  0  0  0  0  0
    1.0706   -0.3225   -0.0000 C   0  0  0  0  0  0  0  0  0  0  0  0
    2.2848    0.3784   -0.0000 O   0  0  0  0  0  0  0  0  0  0  0  0
    3.3067   -0.5815   -0.0000 C   0  0  0  0  0  0  0  0  0  0  0  0
    4.6602    0.1169   -0.0000 C   0  0  0  0  0  0  0  0  0  0  0  0
    5.7703   -0.9258   -0.0000 C   0  0  0  0  0  0  0  0  0  0  0  0
   -6.7594    1.2094   -0.0000 H   0  0  0  0  0  0  0  0  0  0  0  0
   -5.9719   -0.1527   -0.9093 H   0  0  0  0  0  0  0  0  0  0  0  0
   -5.9720   -0.1533    0.9088 H   0  0  0  0  0  0  0  0  0  0  0  0
   -3.7658   -0.4082    0.9093 H   0  0  0  0  0  0  0  0  0  0  0  0
   -3.7659   -0.4089   -0.9088 H   0  0  0  0  0  0  0  0  0  0  0  0
   -2.2347    1.5615   -0.9093 H   0  0  0  0  0  0  0  0  0  0  0  0
   -2.2346    1.5621    0.9088 H   0  0  0  0  0  0  0  0  0  0  0  0
   -0.0286    1.3060   -0.9093 H   0  0  0  0  0  0  0  0  0  0  0  0
   -0.0285    1.3066    0.9088 H   0  0  0  0  0  0  0  0  0  0  0  0
    1.0118   -0.9616    0.9093 H   0  0  0  0  0  0  0  0  0  0  0  0
    1.0117   -0.9623   -0.9088 H   0  0  0  0  0  0  0  0  0  0  0  0
    3.2179   -1.2172    0.9093 H   0  0  0  0  0  0  0  0  0  0  0  0
    3.2178   -1.2178   -0.9088 H   0  0  0  0  0  0  0  0  0  0  0  0
    4.7490    0.7526   -0.9093 H   0  0  0  0  0  0  0  0  0  0  0  0
    4.7491    0.7532    0.9088 H   0  0  0  0  0  0  0  0  0  0  0  0
    6.7594   -0.4155   -0.0000 H   0  0  0  0  0  0  0  0  0  0  0  0
    5.6814   -1.5615    0.9093 H   0  0  0  0  0  0  0  0  0  0  0  0
    5.6813   -1.5621   -0.9088 H   0  0  0  0  0  0  0  0  0  0  0  0
  1  2  1  0      
  1 12  1  0      
  1 13  1  0      
  1 14  1  0      
  2  3  1  0      
  3  4  1  0      
  3 15  1  0      
  3 16  1  0      
  4  5  1  0      
  4 17  1  0      
  4 18  1  0      
  5  6  1  0      
  6  7  1  0      
  6 19  1  0      
  6 20  1  0      
  7  8  1  0      
  7 21  1  0      
  7 22  1  0      
  8  9  1  0      
  9 10  1  0      
  9 23  1  0      
  9 24  1  0      
 10 11  1  0      
 10 25  1  0      
 10 26  1  0      
 11 27  1  0      
 11 28  1  0      
 11 29  1  0      
M  END
$$$$
