Fragment
  Chem3D Core 21.007272619293D

 14 13  0  0  0  0  0  0  0  0999 V2000
   -1.8736   -0.7334   -0.0000 C   0  0  0  0  0  0  0  0  0  0  0  0
   -0.6596   -0.0322   -0.0000 O   0  0  0  0  0  0  0  0  0  0  0  0
    0.3626   -0.9918   -0.0000 C   0  0  0  0  0  0  0  0  0  0  0  0
    1.7034   -0.2995   -0.0000 C   0  0  0  0  0  0  0  0  0  0  0  0
    2.7201   -0.9520   -0.0000 O   0  0  0  0  0  0  0  0  0  0  0  0
    1.7743    1.2078   -0.0000 C   0  0  0  0  0  0  0  0  0  0  0  0
   -2.7201   -0.0107   -0.0000 H   0  0  0  0  0  0  0  0  0  0  0  0
   -1.9323   -1.3726   -0.9093 H   0  0  0  0  0  0  0  0  0  0  0  0
   -1.9323   -1.3733    0.9088 H   0  0  0  0  0  0  0  0  0  0  0  0
    0.2739   -1.6276    0.9093 H   0  0  0  0  0  0  0  0  0  0  0  0
    0.2738   -1.6282   -0.9088 H   0  0  0  0  0  0  0  0  0  0  0  0
    0.7437    1.6282   -0.0000 H   0  0  0  0  0  0  0  0  0  0  0  0
    2.3153    1.5532    0.9093 H   0  0  0  0  0  0  0  0  0  0  0  0
    2.3158    1.5536   -0.9088 H   0  0  0  0  0  0  0  0  0  0  0  0
  1  2  1  0      
  1  7  1  0      
  1  8  1  0      
  1  9  1  0      
  2  3  1  0      
  3  4  1  0      
  3 10  1  0      
  3 11  1  0      
  4  5  2  0      
  4  6  1  0      
  6 12  1  0      
  6 13  1  0      
  6 14  1  0      
M  END
$$$$
