Fragment
  Chem3D Core 21.007272619293D

 41 42  0  0  0  0  0  0  0  0999 V2000
    2.6512    4.0550    0.9176 C   0  0  0  0  0  0  0  0  0  0  0  0
    3.3888    2.9031    1.2257 O   0  0  0  0  0  0  0  0  0  0  0  0
    2.5647    1.8635    1.5015 C   0  0  0  0  0  0  0  0  0  0  0  0
    3.0994    0.6189    1.8340 C   0  0  0  0  0  0  0  0  0  0  0  0
    2.2510   -0.4513    2.1178 C   0  0  0  0  0  0  0  0  0  0  0  0
    0.8680   -0.2768    2.0692 C   0  0  0  0  0  0  0  0  0  0  0  0
    0.3333    0.9678    1.7368 C   0  0  0  0  0  0  0  0  0  0  0  0
    1.1817    2.0380    1.4529 C   0  0  0  0  0  0  0  0  0  0  0  0
   -0.0425   -1.4254    2.3738 C   0  0  0  0  0  0  0  0  0  0  0  0
    0.7879   -2.6587    2.7036 C   0  0  0  0  0  0  0  0  0  0  0  0
   -0.9220   -1.0727    3.5661 C   0  0  0  0  0  0  0  0  0  0  0  0
   -0.9043   -1.7082    1.1828 C   0  0  0  0  0  0  0  0  0  0  0  0
   -0.3191   -2.0557   -0.0346 C   0  0  0  0  0  0  0  0  0  0  0  0
   -1.1221   -2.3191   -1.1444 C   0  0  0  0  0  0  0  0  0  0  0  0
   -2.5102   -2.2351   -1.0365 C   0  0  0  0  0  0  0  0  0  0  0  0
   -3.0954   -1.8876    0.1809 C   0  0  0  0  0  0  0  0  0  0  0  0
   -2.2924   -1.6241    1.2907 C   0  0  0  0  0  0  0  0  0  0  0  0
   -3.2902   -2.4909   -2.1145 O   0  0  0  0  0  0  0  0  0  0  0  0
   -2.5654   -2.8072   -3.1939 C   0  0  0  0  0  0  0  0  0  0  0  0
   -2.1979   -1.9398   -3.9501 O   0  0  0  0  0  0  0  0  0  0  0  0
   -2.2070   -4.2475   -3.4665 C   0  0  0  0  0  0  0  0  0  0  0  0
    3.3481    4.8938    0.6951 H   0  0  0  0  0  0  0  0  0  0  0  0
    2.0119    3.8585    0.0280 H   0  0  0  0  0  0  0  0  0  0  0  0
    2.0086    4.3268    1.7847 H   0  0  0  0  0  0  0  0  0  0  0  0
    4.1901    0.4814    1.8724 H   0  0  0  0  0  0  0  0  0  0  0  0
    2.6726   -1.4329    2.3799 H   0  0  0  0  0  0  0  0  0  0  0  0
   -0.7574    1.1054    1.6985 H   0  0  0  0  0  0  0  0  0  0  0  0
    0.7600    3.0196    1.1907 H   0  0  0  0  0  0  0  0  0  0  0  0
    0.1109   -3.5127    2.9301 H   0  0  0  0  0  0  0  0  0  0  0  0
    1.4306   -2.9165    1.8323 H   0  0  0  0  0  0  0  0  0  0  0  0
    1.4286   -2.4485    3.5891 H   0  0  0  0  0  0  0  0  0  0  0  0
   -1.5994   -1.9260    3.7934 H   0  0  0  0  0  0  0  0  0  0  0  0
   -1.5293   -0.1717    3.3248 H   0  0  0  0  0  0  0  0  0  0  0  0
   -0.2804   -0.8626    4.4509 H   0  0  0  0  0  0  0  0  0  0  0  0
    0.7756   -2.1221   -0.1197 H   0  0  0  0  0  0  0  0  0  0  0  0
   -0.6606   -2.5932   -2.1046 H   0  0  0  0  0  0  0  0  0  0  0  0
   -4.1901   -1.8213    0.2660 H   0  0  0  0  0  0  0  0  0  0  0  0
   -2.7538   -1.3500    2.2508 H   0  0  0  0  0  0  0  0  0  0  0  0
   -2.6312   -4.8938   -2.6659 H   0  0  0  0  0  0  0  0  0  0  0  0
   -2.6266   -4.5536   -4.4509 H   0  0  0  0  0  0  0  0  0  0  0  0
   -1.0996   -4.3572   -3.4839 H   0  0  0  0  0  0  0  0  0  0  0  0
  1  2  1  0      
  1 22  1  0      
  1 23  1  0      
  1 24  1  0      
  2  3  1  0      
  3  4  1  0      
  3  8  2  0      
  4  5  2  0      
  4 25  1  0      
  5  6  1  0      
  5 26  1  0      
  6  7  2  0      
  6  9  1  0      
  7  8  1  0      
  7 27  1  0      
  8 28  1  0      
  9 10  1  0      
  9 11  1  0      
  9 12  1  0      
 10 29  1  0      
 10 30  1  0      
 10 31  1  0      
 11 32  1  0      
 11 33  1  0      
 11 34  1  0      
 12 13  1  0      
 12 17  2  0      
 13 14  2  0      
 13 35  1  0      
 14 15  1  0      
 14 36  1  0      
 15 16  2  0      
 15 18  1  0      
 16 17  1  0      
 16 37  1  0      
 17 38  1  0      
 18 19  1  0      
 19 20  2  0      
 19 21  1  0      
 21 39  1  0      
 21 40  1  0      
 21 41  1  0      
M  END
$$$$
