Fragment
  Chem3D Core 21.007272619283D

 65 64  0  0  0  0  0  0  0  0999 V2000
   -1.8477   -3.9755    0.7325 C   0  0  0  0  0  0  0  0  0  0  0  0
   -0.5288   -3.2139    0.7325 C   0  0  0  0  0  0  0  0  0  0  0  0
   -0.8065   -1.7164    0.7325 C   0  0  0  0  0  0  0  0  0  0  0  0
   -1.5977   -1.3508    1.9643 C   0  0  0  0  0  0  0  0  0  0  0  0
   -1.9224   -0.2030    2.1550 O   0  0  0  0  0  0  0  0  0  0  0  0
   -1.9473   -2.3199    2.8659 N   0  0  0  0  0  0  0  0  0  0  0  0
   -2.7075   -1.9686    4.0496 C   0  0  0  0  0  0  0  0  0  0  0  0
   -4.0383   -1.3546    3.6354 C   0  0  0  0  0  0  0  0  0  0  0  0
   -2.9629   -3.2207    4.8781 C   0  0  0  0  0  0  0  0  0  0  0  0
    0.5132   -0.9561    0.7334 C   0  0  0  0  0  0  0  0  0  0  0  0
    0.5961   -0.0802   -0.5098 C   0  0  0  0  0  0  0  0  0  0  0  0
   -0.5495    0.9020   -0.5112 C   0  0  0  0  0  0  0  0  0  0  0  0
   -1.5970    0.6074   -1.0357 O   0  0  0  0  0  0  0  0  0  0  0  0
   -0.4016    2.1270    0.0818 N   0  0  0  0  0  0  0  0  0  0  0  0
   -1.5023    3.0708    0.0804 C   0  0  0  0  0  0  0  0  0  0  0  0
   -2.6985    2.4579    0.7966 C   0  0  0  0  0  0  0  0  0  0  0  0
   -1.0788    4.3446    0.7999 C   0  0  0  0  0  0  0  0  0  0  0  0
    1.9158    0.6801   -0.5071 C   0  0  0  0  0  0  0  0  0  0  0  0
    2.7168    0.3126   -1.7492 C   0  0  0  0  0  0  0  0  0  0  0  0
    1.9289    0.6783   -2.9831 C   0  0  0  0  0  0  0  0  0  0  0  0
    2.3907    0.4671   -4.0792 O   0  0  0  0  0  0  0  0  0  0  0  0
    0.6908    1.2495   -2.8604 N   0  0  0  0  0  0  0  0  0  0  0  0
   -0.0662    1.6009   -4.0461 C   0  0  0  0  0  0  0  0  0  0  0  0
   -0.3194    0.3499   -4.8769 C   0  0  0  0  0  0  0  0  0  0  0  0
   -1.3981    2.2139   -3.6339 C   0  0  0  0  0  0  0  0  0  0  0  0
    4.0356    1.0742   -1.7456 C   0  0  0  0  0  0  0  0  0  0  0  0
   -1.6448   -5.0698    0.7325 H   0  0  0  0  0  0  0  0  0  0  0  0
   -2.4307   -3.7068    1.6417 H   0  0  0  0  0  0  0  0  0  0  0  0
   -2.4313   -3.7065   -0.1764 H   0  0  0  0  0  0  0  0  0  0  0  0
    0.0541   -3.4825   -0.1768 H   0  0  0  0  0  0  0  0  0  0  0  0
    0.0547   -3.4828    1.6413 H   0  0  0  0  0  0  0  0  0  0  0  0
   -1.3900   -1.4474   -0.1764 H   0  0  0  0  0  0  0  0  0  0  0  0
   -1.6752   -3.2814    2.7061 H   0  0  0  0  0  0  0  0  0  0  0  0
   -2.1322   -1.2330    4.6550 H   0  0  0  0  0  0  0  0  0  0  0  0
   -4.6218   -1.0849    4.5440 H   0  0  0  0  0  0  0  0  0  0  0  0
   -3.8517   -0.4395    3.0299 H   0  0  0  0  0  0  0  0  0  0  0  0
   -4.6137   -2.0902    3.0300 H   0  0  0  0  0  0  0  0  0  0  0  0
   -3.5465   -2.9521    5.7870 H   0  0  0  0  0  0  0  0  0  0  0  0
   -1.9904   -3.6691    5.1813 H   0  0  0  0  0  0  0  0  0  0  0  0
   -3.5383   -3.9556    4.2718 H   0  0  0  0  0  0  0  0  0  0  0  0
    0.5713   -0.3161    1.6421 H   0  0  0  0  0  0  0  0  0  0  0  0
    1.3583   -1.6803    0.7338 H   0  0  0  0  0  0  0  0  0  0  0  0
    0.5373   -0.7199   -1.4187 H   0  0  0  0  0  0  0  0  0  0  0  0
    0.4760    2.3738    0.5212 H   0  0  0  0  0  0  0  0  0  0  0  0
   -1.7824    3.3123   -0.9694 H   0  0  0  0  0  0  0  0  0  0  0  0
   -3.5434    3.1823    0.7955 H   0  0  0  0  0  0  0  0  0  0  0  0
   -3.0080    1.5270    0.2708 H   0  0  0  0  0  0  0  0  0  0  0  0
   -2.4184    2.2164    1.8464 H   0  0  0  0  0  0  0  0  0  0  0  0
   -1.9231    5.0698    0.7994 H   0  0  0  0  0  0  0  0  0  0  0  0
   -0.2051    4.7929    0.2761 H   0  0  0  0  0  0  0  0  0  0  0  0
   -0.7989    4.1021    1.8495 H   0  0  0  0  0  0  0  0  0  0  0  0
    1.7128    1.7744   -0.5075 H   0  0  0  0  0  0  0  0  0  0  0  0
    2.4974    0.4101    0.4026 H   0  0  0  0  0  0  0  0  0  0  0  0
    2.9193   -0.7819   -1.7494 H   0  0  0  0  0  0  0  0  0  0  0  0
    0.3040    1.4264   -1.9421 H   0  0  0  0  0  0  0  0  0  0  0  0
    0.5107    2.3366   -4.6499 H   0  0  0  0  0  0  0  0  0  0  0  0
   -0.9005    0.6196   -5.7870 H   0  0  0  0  0  0  0  0  0  0  0  0
    0.6539   -0.0981   -5.1781 H   0  0  0  0  0  0  0  0  0  0  0  0
   -0.8964   -0.3858   -4.2731 H   0  0  0  0  0  0  0  0  0  0  0  0
   -1.9801    2.4840   -4.5434 H   0  0  0  0  0  0  0  0  0  0  0  0
   -1.2131    3.1285   -3.0273 H   0  0  0  0  0  0  0  0  0  0  0  0
   -1.9743    1.4774   -3.0302 H   0  0  0  0  0  0  0  0  0  0  0  0
    4.6218    0.8063   -2.6530 H   0  0  0  0  0  0  0  0  0  0  0  0
    4.6170    0.8040   -0.8358 H   0  0  0  0  0  0  0  0  0  0  0  0
    3.8320    2.1684   -1.7454 H   0  0  0  0  0  0  0  0  0  0  0  0
  1  2  1  0      
  1 27  1  0      
  1 28  1  0      
  1 29  1  0      
  2  3  1  0      
  2 30  1  0      
  2 31  1  0      
  3  4  1  0      
  3 10  1  0      
  3 32  1  0      
  4  5  2  0      
  4  6  1  0      
  6  7  1  0      
  6 33  1  0      
  7  8  1  0      
  7  9  1  0      
  7 34  1  0      
  8 35  1  0      
  8 36  1  0      
  8 37  1  0      
  9 38  1  0      
  9 39  1  0      
  9 40  1  0      
 10 11  1  0      
 10 41  1  0      
 10 42  1  0      
 11 12  1  0      
 11 18  1  0      
 11 43  1  0      
 12 13  2  0      
 12 14  1  0      
 14 15  1  0      
 14 44  1  0      
 15 16  1  0      
 15 17  1  0      
 15 45  1  0      
 16 46  1  0      
 16 47  1  0      
 16 48  1  0      
 17 49  1  0      
 17 50  1  0      
 17 51  1  0      
 18 19  1  0      
 18 52  1  0      
 18 53  1  0      
 19 20  1  0      
 19 26  1  0      
 19 54  1  0      
 20 21  2  0      
 20 22  1  0      
 22 23  1  0      
 22 55  1  0      
 23 24  1  0      
 23 25  1  0      
 23 56  1  0      
 24 57  1  0      
 24 58  1  0      
 24 59  1  0      
 25 60  1  0      
 25 61  1  0      
 25 62  1  0      
 26 63  1  0      
 26 64  1  0      
 26 65  1  0      
M  END
$$$$
