Fragment
  Chem3D Core 21.007272619273D

 29 28  0  0  0  0  0  0  0  0999 V2000
    3.6571    0.3993   -1.2426 C   0  0  0  0  0  0  0  0  0  0  0  0
    2.3381   -0.3622   -1.2426 C   0  0  0  0  0  0  0  0  0  0  0  0
    1.1800    0.6269   -1.2426 C   0  0  0  0  0  0  0  0  0  0  0  0
    1.2569    1.4724   -2.4426 C   0  0  0  0  0  0  0  0  0  0  0  0
    1.3174    2.1385   -3.3880 N   0  0  0  0  0  0  0  0  0  0  0  0
   -0.1382   -0.1359   -1.2435 C   0  0  0  0  0  0  0  0  0  0  0  0
   -0.9382    0.2302   -0.0004 C   0  0  0  0  0  0  0  0  0  0  0  0
   -1.2090    1.6750    0.0011 C   0  0  0  0  0  0  0  0  0  0  0  0
   -1.4223    2.8132    0.0022 N   0  0  0  0  0  0  0  0  0  0  0  0
   -2.2564   -0.5326   -0.0031 C   0  0  0  0  0  0  0  0  0  0  0  0
   -2.3386   -1.4101    1.2390 C   0  0  0  0  0  0  0  0  0  0  0  0
   -2.2635   -0.5673    2.4411 C   0  0  0  0  0  0  0  0  0  0  0  0
   -2.2043    0.0966    3.3880 N   0  0  0  0  0  0  0  0  0  0  0  0
   -3.6576   -2.1716    1.2354 C   0  0  0  0  0  0  0  0  0  0  0  0
    4.5034   -0.3236   -1.2426 H   0  0  0  0  0  0  0  0  0  0  0  0
    3.7158    1.0384   -2.1519 H   0  0  0  0  0  0  0  0  0  0  0  0
    3.7159    1.0391   -0.3338 H   0  0  0  0  0  0  0  0  0  0  0  0
    2.2794   -1.0014   -0.3333 H   0  0  0  0  0  0  0  0  0  0  0  0
    2.2793   -1.0020   -2.1514 H   0  0  0  0  0  0  0  0  0  0  0  0
    1.2388    1.2667   -0.3338 H   0  0  0  0  0  0  0  0  0  0  0  0
   -0.7216    0.1337   -2.1522 H   0  0  0  0  0  0  0  0  0  0  0  0
    0.0665   -1.2299   -1.2440 H   0  0  0  0  0  0  0  0  0  0  0  0
   -0.3549   -0.0387    0.9086 H   0  0  0  0  0  0  0  0  0  0  0  0
   -3.1028    0.1902   -0.0026 H   0  0  0  0  0  0  0  0  0  0  0  0
   -2.3134   -1.1714   -0.9128 H   0  0  0  0  0  0  0  0  0  0  0  0
   -1.4920   -2.1327    1.2393 H   0  0  0  0  0  0  0  0  0  0  0  0
   -3.7186   -2.8132    2.1428 H   0  0  0  0  0  0  0  0  0  0  0  0
   -3.7142   -2.8102    0.3256 H   0  0  0  0  0  0  0  0  0  0  0  0
   -4.5034   -1.4481    1.2352 H   0  0  0  0  0  0  0  0  0  0  0  0
  1  2  1  0      
  1 15  1  0      
  1 16  1  0      
  1 17  1  0      
  2  3  1  0      
  2 18  1  0      
  2 19  1  0      
  3  4  1  0      
  3  6  1  0      
  3 20  1  0      
  4  5  3  0      
  6  7  1  0      
  6 21  1  0      
  6 22  1  0      
  7  8  1  0      
  7 10  1  0      
  7 23  1  0      
  8  9  3  0      
 10 11  1  0      
 10 24  1  0      
 10 25  1  0      
 11 12  1  0      
 11 14  1  0      
 11 26  1  0      
 12 13  3  0      
 14 27  1  0      
 14 28  1  0      
 14 29  1  0      
M  END
$$$$
