Fragment
  Chem3D Core 21.007272619273D

 14 13  0  0  0  0  0  0  0  0999 V2000
   -1.8980    0.2667   -0.0000 C   0  0  0  0  0  0  0  0  0  0  0  0
   -0.5790   -0.4946   -0.0000 C   0  0  0  0  0  0  0  0  0  0  0  0
    0.5790    0.4946   -0.0000 C   0  0  0  0  0  0  0  0  0  0  0  0
    1.8980   -0.2667   -0.0000 C   0  0  0  0  0  0  0  0  0  0  0  0
   -2.7443   -0.4562   -0.0000 H   0  0  0  0  0  0  0  0  0  0  0  0
   -1.9569    0.9059    0.9093 H   0  0  0  0  0  0  0  0  0  0  0  0
   -1.9569    0.9065   -0.9088 H   0  0  0  0  0  0  0  0  0  0  0  0
   -0.5202   -1.1338   -0.9093 H   0  0  0  0  0  0  0  0  0  0  0  0
   -0.5201   -1.1344    0.9088 H   0  0  0  0  0  0  0  0  0  0  0  0
    0.5202    1.1338    0.9093 H   0  0  0  0  0  0  0  0  0  0  0  0
    0.5201    1.1344   -0.9088 H   0  0  0  0  0  0  0  0  0  0  0  0
    2.7443    0.4562   -0.0000 H   0  0  0  0  0  0  0  0  0  0  0  0
    1.9569   -0.9059   -0.9093 H   0  0  0  0  0  0  0  0  0  0  0  0
    1.9569   -0.9065    0.9088 H   0  0  0  0  0  0  0  0  0  0  0  0
  1  2  1  0      
  1  5  1  0      
  1  6  1  0      
  1  7  1  0      
  2  3  1  0      
  2  8  1  0      
  2  9  1  0      
  3  4  1  0      
  3 10  1  0      
  3 11  1  0      
  4 12  1  0      
  4 13  1  0      
  4 14  1  0      
M  END
$$$$
