Fragment
  Chem3D Core 21.007272619283D

 38 37  0  0  0  0  0  0  0  0999 V2000
    4.7874   -4.3287   -0.0000 C   0  0  0  0  0  0  0  0  0  0  0  0
    3.4685   -5.0903   -0.0000 C   0  0  0  0  0  0  0  0  0  0  0  0
    2.3301   -4.1182   -0.0000 C   0  0  0  0  0  0  0  0  0  0  0  0
    0.7098   -4.6922   -0.0000 Cl  0  0  0  0  0  0  0  0  0  0  0  0
    2.5737   -2.8036   -0.0000 C   0  0  0  0  0  0  0  0  0  0  0  0
    1.4353   -1.8315   -0.0000 C   0  0  0  0  0  0  0  0  0  0  0  0
    1.9809   -0.4096   -0.0000 C   0  0  0  0  0  0  0  0  0  0  0  0
    0.8425    0.5625   -0.0000 C   0  0  0  0  0  0  0  0  0  0  0  0
    1.1556    2.2528   -0.0000 Cl  0  0  0  0  0  0  0  0  0  0  0  0
   -0.4178    0.1161   -0.0000 C   0  0  0  0  0  0  0  0  0  0  0  0
   -1.5562    1.0883   -0.0000 C   0  0  0  0  0  0  0  0  0  0  0  0
   -2.8751    0.3266   -0.0000 C   0  0  0  0  0  0  0  0  0  0  0  0
   -4.0135    1.2988   -0.0000 C   0  0  0  0  0  0  0  0  0  0  0  0
   -5.6338    0.7248   -0.0000 Cl  0  0  0  0  0  0  0  0  0  0  0  0
   -3.7699    2.6134   -0.0000 C   0  0  0  0  0  0  0  0  0  0  0  0
   -4.9084    3.5855   -0.0000 C   0  0  0  0  0  0  0  0  0  0  0  0
   -4.3627    5.0074   -0.0000 C   0  0  0  0  0  0  0  0  0  0  0  0
    5.6338   -5.0515   -0.0000 H   0  0  0  0  0  0  0  0  0  0  0  0
    4.8461   -3.6895   -0.9093 H   0  0  0  0  0  0  0  0  0  0  0  0
    4.8462   -3.6889    0.9088 H   0  0  0  0  0  0  0  0  0  0  0  0
    3.4099   -5.7295    0.9093 H   0  0  0  0  0  0  0  0  0  0  0  0
    3.4098   -5.7302   -0.9088 H   0  0  0  0  0  0  0  0  0  0  0  0
    3.6105   -2.4363   -0.0000 H   0  0  0  0  0  0  0  0  0  0  0  0
    0.8131   -1.9895   -0.9093 H   0  0  0  0  0  0  0  0  0  0  0  0
    0.8125   -1.9897    0.9088 H   0  0  0  0  0  0  0  0  0  0  0  0
    2.6030   -0.2515    0.9093 H   0  0  0  0  0  0  0  0  0  0  0  0
    2.6037   -0.2514   -0.9088 H   0  0  0  0  0  0  0  0  0  0  0  0
   -0.6181   -0.9655   -0.0000 H   0  0  0  0  0  0  0  0  0  0  0  0
   -1.4975    1.7275    0.9093 H   0  0  0  0  0  0  0  0  0  0  0  0
   -1.4974    1.7281   -0.9088 H   0  0  0  0  0  0  0  0  0  0  0  0
   -2.9337   -0.3126   -0.9093 H   0  0  0  0  0  0  0  0  0  0  0  0
   -2.9338   -0.3132    0.9088 H   0  0  0  0  0  0  0  0  0  0  0  0
   -2.7331    2.9807   -0.0000 H   0  0  0  0  0  0  0  0  0  0  0  0
   -5.5305    3.4275   -0.9093 H   0  0  0  0  0  0  0  0  0  0  0  0
   -5.5311    3.4273    0.9088 H   0  0  0  0  0  0  0  0  0  0  0  0
   -5.2091    5.7302   -0.0000 H   0  0  0  0  0  0  0  0  0  0  0  0
   -3.7406    5.1655    0.9093 H   0  0  0  0  0  0  0  0  0  0  0  0
   -3.7400    5.1656   -0.9088 H   0  0  0  0  0  0  0  0  0  0  0  0
  1  2  1  0      
  1 18  1  0      
  1 19  1  0      
  1 20  1  0      
  2  3  1  0      
  2 21  1  0      
  2 22  1  0      
  3  4  1  0      
  3  5  2  0      
  5  6  1  0      
  5 23  1  0      
  6  7  1  0      
  6 24  1  0      
  6 25  1  0      
  7  8  1  0      
  7 26  1  0      
  7 27  1  0      
  8  9  1  0      
  8 10  2  0      
 10 11  1  0      
 10 28  1  0      
 11 12  1  0      
 11 29  1  0      
 11 30  1  0      
 12 13  1  0      
 12 31  1  0      
 12 32  1  0      
 13 14  1  0      
 13 15  2  0      
 15 16  1  0      
 15 33  1  0      
 16 17  1  0      
 16 34  1  0      
 16 35  1  0      
 17 36  1  0      
 17 37  1  0      
 17 38  1  0      
M  END
$$$$
