Fragment
  Chem3D Core 21.007272619323D

158157  0  0  0  0  0  0  0  0999 V2000
  -27.3143   -9.4322   -0.0000 C   0  0  0  0  0  0  0  0  0  0  0  0
  -26.0690   -8.7131   -0.0000 N   0  0  0  0  0  0  0  0  0  0  0  0
  -25.0053   -9.6808   -0.0000 C   0  0  0  0  0  0  0  0  0  0  0  0
  -23.6631   -8.9610   -0.0000 C   0  0  0  0  0  0  0  0  0  0  0  0
  -22.5366   -9.9859   -0.0000 C   0  0  0  0  0  0  0  0  0  0  0  0
  -21.1944   -9.2661   -0.0000 C   0  0  0  0  0  0  0  0  0  0  0  0
  -20.0679  -10.2910   -0.0000 C   0  0  0  0  0  0  0  0  0  0  0  0
  -18.7257   -9.5711   -0.0000 C   0  0  0  0  0  0  0  0  0  0  0  0
  -17.5992  -10.5960   -0.0000 C   0  0  0  0  0  0  0  0  0  0  0  0
  -16.2570   -9.8762   -0.0000 C   0  0  0  0  0  0  0  0  0  0  0  0
  -15.1305  -10.9011   -0.0000 C   0  0  0  0  0  0  0  0  0  0  0  0
  -13.7883  -10.1813   -0.0000 C   0  0  0  0  0  0  0  0  0  0  0  0
  -12.6618  -11.2062   -0.0000 C   0  0  0  0  0  0  0  0  0  0  0  0
  -11.3319  -10.4930   -0.0000 C   0  0  0  0  0  0  0  0  0  0  0  0
  -10.3052  -11.1295   -0.0000 O   0  0  0  0  0  0  0  0  0  0  0  0
  -11.2900   -9.1557   -0.0000 O   0  0  0  0  0  0  0  0  0  0  0  0
   -9.9574   -8.7200   -0.0000 C   0  0  0  0  0  0  0  0  0  0  0  0
   -9.9204   -7.1974   -0.0000 C   0  0  0  0  0  0  0  0  0  0  0  0
   -8.4728   -6.7242   -0.0000 C   0  0  0  0  0  0  0  0  0  0  0  0
   -8.4357   -5.2016   -0.0000 C   0  0  0  0  0  0  0  0  0  0  0  0
   -7.0689   -4.7547   -0.0000 N   0  0  0  0  0  0  0  0  0  0  0  0
   -7.0790   -3.3168   -0.0000 C   0  0  0  0  0  0  0  0  0  0  0  0
   -5.6470   -2.7983   -0.0000 C   0  0  0  0  0  0  0  0  0  0  0  0
   -5.6578   -1.2753   -0.0000 C   0  0  0  0  0  0  0  0  0  0  0  0
   -4.2258   -0.7568   -0.0000 C   0  0  0  0  0  0  0  0  0  0  0  0
   -4.2365    0.7662   -0.0000 C   0  0  0  0  0  0  0  0  0  0  0  0
   -2.8045    1.2847   -0.0000 C   0  0  0  0  0  0  0  0  0  0  0  0
   -2.8153    2.8077   -0.0000 C   0  0  0  0  0  0  0  0  0  0  0  0
   -1.3833    3.3262   -0.0000 C   0  0  0  0  0  0  0  0  0  0  0  0
   -1.3940    4.8492   -0.0000 C   0  0  0  0  0  0  0  0  0  0  0  0
    0.0380    5.3677   -0.0000 C   0  0  0  0  0  0  0  0  0  0  0  0
    0.0272    6.8906   -0.0000 C   0  0  0  0  0  0  0  0  0  0  0  0
    1.4460    7.4044   -0.0000 C   0  0  0  0  0  0  0  0  0  0  0  0
    1.6578    8.5937   -0.0000 O   0  0  0  0  0  0  0  0  0  0  0  0
    2.4696    6.5427   -0.0000 O   0  0  0  0  0  0  0  0  0  0  0  0
    3.6837    7.2438   -0.0000 C   0  0  0  0  0  0  0  0  0  0  0  0
    4.8419    6.2548   -0.0000 C   0  0  0  0  0  0  0  0  0  0  0  0
    6.1608    7.0164   -0.0000 C   0  0  0  0  0  0  0  0  0  0  0  0
    7.3190    6.0274   -0.0000 C   0  0  0  0  0  0  0  0  0  0  0  0
    8.5642    6.7465   -0.0000 N   0  0  0  0  0  0  0  0  0  0  0  0
    9.6279    5.7788   -0.0000 C   0  0  0  0  0  0  0  0  0  0  0  0
   10.9701    6.4986   -0.0000 C   0  0  0  0  0  0  0  0  0  0  0  0
   12.0966    5.4737   -0.0000 C   0  0  0  0  0  0  0  0  0  0  0  0
   13.4388    6.1935   -0.0000 C   0  0  0  0  0  0  0  0  0  0  0  0
   14.5653    5.1686   -0.0000 C   0  0  0  0  0  0  0  0  0  0  0  0
   15.9075    5.8884   -0.0000 C   0  0  0  0  0  0  0  0  0  0  0  0
   17.0340    4.8635   -0.0000 C   0  0  0  0  0  0  0  0  0  0  0  0
   18.3762    5.5833   -0.0000 C   0  0  0  0  0  0  0  0  0  0  0  0
   19.5028    4.5584   -0.0000 C   0  0  0  0  0  0  0  0  0  0  0  0
   20.8449    5.2782   -0.0000 C   0  0  0  0  0  0  0  0  0  0  0  0
   21.9715    4.2533   -0.0000 C   0  0  0  0  0  0  0  0  0  0  0  0
   23.3013    4.9665   -0.0000 C   0  0  0  0  0  0  0  0  0  0  0  0
   24.3280    4.3300   -0.0000 O   0  0  0  0  0  0  0  0  0  0  0  0
   23.3432    6.3039   -0.0000 O   0  0  0  0  0  0  0  0  0  0  0  0
   24.6758    6.7395   -0.0000 C   0  0  0  0  0  0  0  0  0  0  0  0
   24.7129    8.2621   -0.0000 C   0  0  0  0  0  0  0  0  0  0  0  0
   26.1605    8.7354   -0.0000 C   0  0  0  0  0  0  0  0  0  0  0  0
   26.1975   10.2579   -0.0000 C   0  0  0  0  0  0  0  0  0  0  0  0
   27.6451   10.7312   -0.0000 C   0  0  0  0  0  0  0  0  0  0  0  0
  -28.1607   -8.7094   -0.0000 H   0  0  0  0  0  0  0  0  0  0  0  0
  -27.3729  -10.0714   -0.9093 H   0  0  0  0  0  0  0  0  0  0  0  0
  -27.3730  -10.0720    0.9088 H   0  0  0  0  0  0  0  0  0  0  0  0
  -26.0073   -8.1401   -0.8416 H   0  0  0  0  0  0  0  0  0  0  0  0
  -25.0840  -10.3178    0.9093 H   0  0  0  0  0  0  0  0  0  0  0  0
  -25.0841  -10.3184   -0.9088 H   0  0  0  0  0  0  0  0  0  0  0  0
  -23.5844   -8.3239   -0.9093 H   0  0  0  0  0  0  0  0  0  0  0  0
  -23.5843   -8.3233    0.9088 H   0  0  0  0  0  0  0  0  0  0  0  0
  -22.6153  -10.6229    0.9093 H   0  0  0  0  0  0  0  0  0  0  0  0
  -22.6154  -10.6235   -0.9088 H   0  0  0  0  0  0  0  0  0  0  0  0
  -21.1157   -8.6290   -0.9093 H   0  0  0  0  0  0  0  0  0  0  0  0
  -21.1156   -8.6284    0.9088 H   0  0  0  0  0  0  0  0  0  0  0  0
  -20.1466  -10.9280    0.9093 H   0  0  0  0  0  0  0  0  0  0  0  0
  -20.1467  -10.9286   -0.9088 H   0  0  0  0  0  0  0  0  0  0  0  0
  -18.6470   -8.9341   -0.9093 H   0  0  0  0  0  0  0  0  0  0  0  0
  -18.6469   -8.9335    0.9088 H   0  0  0  0  0  0  0  0  0  0  0  0
  -17.6779  -11.2331    0.9093 H   0  0  0  0  0  0  0  0  0  0  0  0
  -17.6780  -11.2337   -0.9088 H   0  0  0  0  0  0  0  0  0  0  0  0
  -16.1783   -9.2392   -0.9093 H   0  0  0  0  0  0  0  0  0  0  0  0
  -16.1782   -9.2386    0.9088 H   0  0  0  0  0  0  0  0  0  0  0  0
  -15.2092  -11.5382    0.9093 H   0  0  0  0  0  0  0  0  0  0  0  0
  -15.2093  -11.5388   -0.9088 H   0  0  0  0  0  0  0  0  0  0  0  0
  -13.7096   -9.5443   -0.9093 H   0  0  0  0  0  0  0  0  0  0  0  0
  -13.7095   -9.5436    0.9088 H   0  0  0  0  0  0  0  0  0  0  0  0
  -12.7405  -11.8433    0.9093 H   0  0  0  0  0  0  0  0  0  0  0  0
  -12.7406  -11.8439   -0.9088 H   0  0  0  0  0  0  0  0  0  0  0  0
   -9.4424   -9.1031    0.9093 H   0  0  0  0  0  0  0  0  0  0  0  0
   -9.4419   -9.1035   -0.9088 H   0  0  0  0  0  0  0  0  0  0  0  0
  -10.4354   -6.8143   -0.9093 H   0  0  0  0  0  0  0  0  0  0  0  0
  -10.4359   -6.8140    0.9088 H   0  0  0  0  0  0  0  0  0  0  0  0
   -7.9577   -7.1073    0.9093 H   0  0  0  0  0  0  0  0  0  0  0  0
   -7.9572   -7.1077   -0.9088 H   0  0  0  0  0  0  0  0  0  0  0  0
   -8.9507   -4.8185   -0.9093 H   0  0  0  0  0  0  0  0  0  0  0  0
   -8.9512   -4.8181    0.9088 H   0  0  0  0  0  0  0  0  0  0  0  0
   -6.6011   -5.0914    0.8416 H   0  0  0  0  0  0  0  0  0  0  0  0
   -7.6058   -2.9500   -0.9093 H   0  0  0  0  0  0  0  0  0  0  0  0
   -7.6064   -2.9497    0.9088 H   0  0  0  0  0  0  0  0  0  0  0  0
   -5.1202   -3.1650    0.9093 H   0  0  0  0  0  0  0  0  0  0  0  0
   -5.1197   -3.1654   -0.9088 H   0  0  0  0  0  0  0  0  0  0  0  0
   -6.1846   -0.9085   -0.9093 H   0  0  0  0  0  0  0  0  0  0  0  0
   -6.1851   -0.9082    0.9088 H   0  0  0  0  0  0  0  0  0  0  0  0
   -3.6990   -1.1235    0.9093 H   0  0  0  0  0  0  0  0  0  0  0  0
   -3.6985   -1.1239   -0.9088 H   0  0  0  0  0  0  0  0  0  0  0  0
   -4.7633    1.1329   -0.9093 H   0  0  0  0  0  0  0  0  0  0  0  0
   -4.7639    1.1333    0.9088 H   0  0  0  0  0  0  0  0  0  0  0  0
   -2.2777    0.9180    0.9093 H   0  0  0  0  0  0  0  0  0  0  0  0
   -2.2772    0.9176   -0.9088 H   0  0  0  0  0  0  0  0  0  0  0  0
   -3.3421    3.1744   -0.9093 H   0  0  0  0  0  0  0  0  0  0  0  0
   -3.3426    3.1748    0.9088 H   0  0  0  0  0  0  0  0  0  0  0  0
   -0.8565    2.9595    0.9093 H   0  0  0  0  0  0  0  0  0  0  0  0
   -0.8560    2.9591   -0.9088 H   0  0  0  0  0  0  0  0  0  0  0  0
   -1.9208    5.2159   -0.9093 H   0  0  0  0  0  0  0  0  0  0  0  0
   -1.9214    5.2163    0.9088 H   0  0  0  0  0  0  0  0  0  0  0  0
    0.5648    5.0009    0.9093 H   0  0  0  0  0  0  0  0  0  0  0  0
    0.5653    5.0006   -0.9088 H   0  0  0  0  0  0  0  0  0  0  0  0
   -0.4996    7.2574   -0.9093 H   0  0  0  0  0  0  0  0  0  0  0  0
   -0.5001    7.2578    0.9088 H   0  0  0  0  0  0  0  0  0  0  0  0
    3.7424    7.8830   -0.9093 H   0  0  0  0  0  0  0  0  0  0  0  0
    3.7424    7.8836    0.9088 H   0  0  0  0  0  0  0  0  0  0  0  0
    4.7832    5.6156    0.9093 H   0  0  0  0  0  0  0  0  0  0  0  0
    4.7831    5.6149   -0.9088 H   0  0  0  0  0  0  0  0  0  0  0  0
    6.2194    7.6556   -0.9093 H   0  0  0  0  0  0  0  0  0  0  0  0
    6.2195    7.6562    0.9088 H   0  0  0  0  0  0  0  0  0  0  0  0
    7.2603    5.3882    0.9093 H   0  0  0  0  0  0  0  0  0  0  0  0
    7.2602    5.3875   -0.9088 H   0  0  0  0  0  0  0  0  0  0  0  0
    8.6259    7.3195   -0.8416 H   0  0  0  0  0  0  0  0  0  0  0  0
    9.5492    5.1417    0.9093 H   0  0  0  0  0  0  0  0  0  0  0  0
    9.5491    5.1411   -0.9088 H   0  0  0  0  0  0  0  0  0  0  0  0
   11.0488    7.1356   -0.9093 H   0  0  0  0  0  0  0  0  0  0  0  0
   11.0489    7.1363    0.9088 H   0  0  0  0  0  0  0  0  0  0  0  0
   12.0179    4.8366    0.9093 H   0  0  0  0  0  0  0  0  0  0  0  0
   12.0178    4.8360   -0.9088 H   0  0  0  0  0  0  0  0  0  0  0  0
   13.5175    6.8305   -0.9093 H   0  0  0  0  0  0  0  0  0  0  0  0
   13.5176    6.8312    0.9088 H   0  0  0  0  0  0  0  0  0  0  0  0
   14.4866    4.5316    0.9093 H   0  0  0  0  0  0  0  0  0  0  0  0
   14.4865    4.5309   -0.9088 H   0  0  0  0  0  0  0  0  0  0  0  0
   15.9862    6.5254   -0.9093 H   0  0  0  0  0  0  0  0  0  0  0  0
   15.9863    6.5261    0.9088 H   0  0  0  0  0  0  0  0  0  0  0  0
   16.9553    4.2265    0.9093 H   0  0  0  0  0  0  0  0  0  0  0  0
   16.9552    4.2258   -0.9088 H   0  0  0  0  0  0  0  0  0  0  0  0
   18.4549    6.2204   -0.9093 H   0  0  0  0  0  0  0  0  0  0  0  0
   18.4550    6.2210    0.9088 H   0  0  0  0  0  0  0  0  0  0  0  0
   19.4240    3.9214    0.9093 H   0  0  0  0  0  0  0  0  0  0  0  0
   19.4239    3.9207   -0.9088 H   0  0  0  0  0  0  0  0  0  0  0  0
   20.9236    5.9153   -0.9093 H   0  0  0  0  0  0  0  0  0  0  0  0
   20.9237    5.9159    0.9088 H   0  0  0  0  0  0  0  0  0  0  0  0
   21.8927    3.6163    0.9093 H   0  0  0  0  0  0  0  0  0  0  0  0
   21.8927    3.6157   -0.9088 H   0  0  0  0  0  0  0  0  0  0  0  0
   25.1908    6.3564    0.9093 H   0  0  0  0  0  0  0  0  0  0  0  0
   25.1913    6.3561   -0.9088 H   0  0  0  0  0  0  0  0  0  0  0  0
   24.1978    8.6452   -0.9093 H   0  0  0  0  0  0  0  0  0  0  0  0
   24.1973    8.6456    0.9088 H   0  0  0  0  0  0  0  0  0  0  0  0
   26.6755    8.3523    0.9093 H   0  0  0  0  0  0  0  0  0  0  0  0
   26.6760    8.3519   -0.9088 H   0  0  0  0  0  0  0  0  0  0  0  0
   25.6825   10.6410   -0.9093 H   0  0  0  0  0  0  0  0  0  0  0  0
   25.6820   10.6414    0.9088 H   0  0  0  0  0  0  0  0  0  0  0  0
   27.6722   11.8439   -0.0000 H   0  0  0  0  0  0  0  0  0  0  0  0
   28.1601   10.3481    0.9093 H   0  0  0  0  0  0  0  0  0  0  0  0
   28.1607   10.3477   -0.9088 H   0  0  0  0  0  0  0  0  0  0  0  0
  1  2  1  0      
  1 60  1  0      
  1 61  1  0      
  1 62  1  0      
  2  3  1  0      
  2 63  1  0      
  3  4  1  0      
  3 64  1  0      
  3 65  1  0      
  4  5  1  0      
  4 66  1  0      
  4 67  1  0      
  5  6  1  0      
  5 68  1  0      
  5 69  1  0      
  6  7  1  0      
  6 70  1  0      
  6 71  1  0      
  7  8  1  0      
  7 72  1  0      
  7 73  1  0      
  8  9  1  0      
  8 74  1  0      
  8 75  1  0      
  9 10  1  0      
  9 76  1  0      
  9 77  1  0      
 10 11  1  0      
 10 78  1  0      
 10 79  1  0      
 11 12  1  0      
 11 80  1  0      
 11 81  1  0      
 12 13  1  0      
 12 82  1  0      
 12 83  1  0      
 13 14  1  0      
 13 84  1  0      
 13 85  1  0      
 14 15  2  0      
 14 16  1  0      
 16 17  1  0      
 17 18  1  0      
 17 86  1  0      
 17 87  1  0      
 18 19  1  0      
 18 88  1  0      
 18 89  1  0      
 19 20  1  0      
 19 90  1  0      
 19 91  1  0      
 20 21  1  0      
 20 92  1  0      
 20 93  1  0      
 21 22  1  0      
 21 94  1  0      
 22 23  1  0      
 22 95  1  0      
 22 96  1  0      
 23 24  1  0      
 23 97  1  0      
 23 98  1  0      
 24 25  1  0      
 24 99  1  0      
 24100  1  0      
 25 26  1  0      
 25101  1  0      
 25102  1  0      
 26 27  1  0      
 26103  1  0      
 26104  1  0      
 27 28  1  0      
 27105  1  0      
 27106  1  0      
 28 29  1  0      
 28107  1  0      
 28108  1  0      
 29 30  1  0      
 29109  1  0      
 29110  1  0      
 30 31  1  0      
 30111  1  0      
 30112  1  0      
 31 32  1  0      
 31113  1  0      
 31114  1  0      
 32 33  1  0      
 32115  1  0      
 32116  1  0      
 33 34  2  0      
 33 35  1  0      
 35 36  1  0      
 36 37  1  0      
 36117  1  0      
 36118  1  0      
 37 38  1  0      
 37119  1  0      
 37120  1  0      
 38 39  1  0      
 38121  1  0      
 38122  1  0      
 39 40  1  0      
 39123  1  0      
 39124  1  0      
 40 41  1  0      
 40125  1  0      
 41 42  1  0      
 41126  1  0      
 41127  1  0      
 42 43  1  0      
 42128  1  0      
 42129  1  0      
 43 44  1  0      
 43130  1  0      
 43131  1  0      
 44 45  1  0      
 44132  1  0      
 44133  1  0      
 45 46  1  0      
 45134  1  0      
 45135  1  0      
 46 47  1  0      
 46136  1  0      
 46137  1  0      
 47 48  1  0      
 47138  1  0      
 47139  1  0      
 48 49  1  0      
 48140  1  0      
 48141  1  0      
 49 50  1  0      
 49142  1  0      
 49143  1  0      
 50 51  1  0      
 50144  1  0      
 50145  1  0      
 51 52  1  0      
 51146  1  0      
 51147  1  0      
 52 53  2  0      
 52 54  1  0      
 54 55  1  0      
 55 56  1  0      
 55148  1  0      
 55149  1  0      
 56 57  1  0      
 56150  1  0      
 56151  1  0      
 57 58  1  0      
 57152  1  0      
 57153  1  0      
 58 59  1  0      
 58154  1  0      
 58155  1  0      
 59156  1  0      
 59157  1  0      
 59158  1  0      
M  END
$$$$
