Fragment
  Chem3D Core 21.007272619293D

 26 25  0  0  0  0  0  0  0  0999 V2000
   -4.3373   -0.0456   -0.0000 C   0  0  0  0  0  0  0  0  0  0  0  0
   -3.1231    0.6555   -0.0000 O   0  0  0  0  0  0  0  0  0  0  0  0
   -2.1010   -0.3042   -0.0000 C   0  0  0  0  0  0  0  0  0  0  0  0
   -0.7477    0.3945   -0.0000 C   0  0  0  0  0  0  0  0  0  0  0  0
    0.3626   -0.6480   -0.0000 C   0  0  0  0  0  0  0  0  0  0  0  0
    1.7159    0.0506   -0.0000 C   0  0  0  0  0  0  0  0  0  0  0  0
    2.8262   -0.9918   -0.0000 C   0  0  0  0  0  0  0  0  0  0  0  0
    4.1670   -0.2996   -0.0000 C   0  0  0  0  0  0  0  0  0  0  0  0
    5.1836   -0.9521   -0.0000 O   0  0  0  0  0  0  0  0  0  0  0  0
    4.2380    1.2077   -0.0000 C   0  0  0  0  0  0  0  0  0  0  0  0
   -5.1836    0.6771   -0.0000 H   0  0  0  0  0  0  0  0  0  0  0  0
   -4.3959   -0.6848   -0.9093 H   0  0  0  0  0  0  0  0  0  0  0  0
   -4.3960   -0.6855    0.9088 H   0  0  0  0  0  0  0  0  0  0  0  0
   -2.1898   -0.9399    0.9093 H   0  0  0  0  0  0  0  0  0  0  0  0
   -2.1899   -0.9405   -0.9088 H   0  0  0  0  0  0  0  0  0  0  0  0
   -0.6590    1.0302   -0.9093 H   0  0  0  0  0  0  0  0  0  0  0  0
   -0.6589    1.0308    0.9088 H   0  0  0  0  0  0  0  0  0  0  0  0
    0.2738   -1.2837    0.9093 H   0  0  0  0  0  0  0  0  0  0  0  0
    0.2738   -1.2843   -0.9088 H   0  0  0  0  0  0  0  0  0  0  0  0
    1.8046    0.6864   -0.9093 H   0  0  0  0  0  0  0  0  0  0  0  0
    1.8047    0.6870    0.9088 H   0  0  0  0  0  0  0  0  0  0  0  0
    2.7375   -1.6275    0.9093 H   0  0  0  0  0  0  0  0  0  0  0  0
    2.7374   -1.6282   -0.9088 H   0  0  0  0  0  0  0  0  0  0  0  0
    3.2075    1.6282   -0.0000 H   0  0  0  0  0  0  0  0  0  0  0  0
    4.7790    1.5531    0.9093 H   0  0  0  0  0  0  0  0  0  0  0  0
    4.7796    1.5535   -0.9088 H   0  0  0  0  0  0  0  0  0  0  0  0
  1  2  1  0      
  1 11  1  0      
  1 12  1  0      
  1 13  1  0      
  2  3  1  0      
  3  4  1  0      
  3 14  1  0      
  3 15  1  0      
  4  5  1  0      
  4 16  1  0      
  4 17  1  0      
  5  6  1  0      
  5 18  1  0      
  5 19  1  0      
  6  7  1  0      
  6 20  1  0      
  6 21  1  0      
  7  8  1  0      
  7 22  1  0      
  7 23  1  0      
  8  9  2  0      
  8 10  1  0      
 10 24  1  0      
 10 25  1  0      
 10 26  1  0      
M  END
$$$$
