Fragment
  Chem3D Core 21.007272619303D

110118  0  0  0  0  0  0  0  0999 V2000
    5.0143   -1.6123   -1.6920 C   0  0  0  0  0  0  0  0  0  0  0  0
    5.7519   -2.7641   -1.3839 O   0  0  0  0  0  0  0  0  0  0  0  0
    4.9277   -3.8037   -1.1081 C   0  0  0  0  0  0  0  0  0  0  0  0
    5.4624   -5.0483   -0.7756 C   0  0  0  0  0  0  0  0  0  0  0  0
    4.6140   -6.1185   -0.4918 C   0  0  0  0  0  0  0  0  0  0  0  0
    3.2310   -5.9440   -0.5404 C   0  0  0  0  0  0  0  0  0  0  0  0
    2.6963   -4.6994   -0.8728 C   0  0  0  0  0  0  0  0  0  0  0  0
    3.5447   -3.6292   -1.1567 C   0  0  0  0  0  0  0  0  0  0  0  0
    2.4069   -6.9836   -0.2647 O   0  0  0  0  0  0  0  0  0  0  0  0
    1.1010   -6.6351   -0.3595 C   0  0  0  0  0  0  0  0  0  0  0  0
    0.3276   -6.5076    0.7943 C   0  0  0  0  0  0  0  0  0  0  0  0
   -1.0168   -6.1489    0.6966 C   0  0  0  0  0  0  0  0  0  0  0  0
   -1.5877   -5.9177   -0.5548 C   0  0  0  0  0  0  0  0  0  0  0  0
   -0.8144   -6.0451   -1.7086 C   0  0  0  0  0  0  0  0  0  0  0  0
    0.5300   -6.4039   -1.6109 C   0  0  0  0  0  0  0  0  0  0  0  0
   -2.8899   -5.5703   -0.6494 C   0  0  0  0  0  0  0  0  0  0  0  0
   -3.3844   -5.3700   -1.7332 O   0  0  0  0  0  0  0  0  0  0  0  0
   -3.6390   -5.4468    0.4681 C   0  0  0  0  0  0  0  0  0  0  0  0
   -4.8358   -6.1532    0.5870 C   0  0  0  0  0  0  0  0  0  0  0  0
   -5.6092   -6.0256    1.7408 C   0  0  0  0  0  0  0  0  0  0  0  0
   -5.1857   -5.1918    2.7756 C   0  0  0  0  0  0  0  0  0  0  0  0
   -3.9889   -4.4855    2.6568 C   0  0  0  0  0  0  0  0  0  0  0  0
   -3.2155   -4.6130    1.5030 C   0  0  0  0  0  0  0  0  0  0  0  0
   -5.9370   -5.0679    3.8964 O   0  0  0  0  0  0  0  0  0  0  0  0
   -5.3759   -4.2206    4.7926 C   0  0  0  0  0  0  0  0  0  0  0  0
   -4.8068   -4.7209    5.9637 C   0  0  0  0  0  0  0  0  0  0  0  0
   -4.2292   -3.8486    6.8862 C   0  0  0  0  0  0  0  0  0  0  0  0
   -4.2206   -2.4761    6.6377 C   0  0  0  0  0  0  0  0  0  0  0  0
   -4.7896   -1.9759    5.4666 C   0  0  0  0  0  0  0  0  0  0  0  0
   -5.3673   -2.8481    4.5440 C   0  0  0  0  0  0  0  0  0  0  0  0
   -3.6596   -1.6288    7.5339 O   0  0  0  0  0  0  0  0  0  0  0  0
   -3.7408   -0.3376    7.1314 C   0  0  0  0  0  0  0  0  0  0  0  0
   -2.5957    0.3318    6.6999 C   0  0  0  0  0  0  0  0  0  0  0  0
   -2.6793    1.6611    6.2857 C   0  0  0  0  0  0  0  0  0  0  0  0
   -3.9081    2.3209    6.3029 C   0  0  0  0  0  0  0  0  0  0  0  0
   -5.0532    1.6516    6.7343 C   0  0  0  0  0  0  0  0  0  0  0  0
   -4.9696    0.3223    7.1486 C   0  0  0  0  0  0  0  0  0  0  0  0
   -3.9891    3.6084    5.9016 C   0  0  0  0  0  0  0  0  0  0  0  0
   -5.0532    4.1799    5.9165 O   0  0  0  0  0  0  0  0  0  0  0  0
   -2.8799    4.2568    5.4838 C   0  0  0  0  0  0  0  0  0  0  0  0
   -2.5213    5.4721    6.0667 C   0  0  0  0  0  0  0  0  0  0  0  0
   -1.3762    6.1416    5.6352 C   0  0  0  0  0  0  0  0  0  0  0  0
   -0.5898    5.5956    4.6209 C   0  0  0  0  0  0  0  0  0  0  0  0
   -0.9483    4.3802    4.0380 C   0  0  0  0  0  0  0  0  0  0  0  0
   -2.0935    3.7108    4.4694 C   0  0  0  0  0  0  0  0  0  0  0  0
    0.5226    6.2459    4.2017 O   0  0  0  0  0  0  0  0  0  0  0  0
    1.1619    5.5736    3.2141 C   0  0  0  0  0  0  0  0  0  0  0  0
    2.3738    4.9350    3.4765 C   0  0  0  0  0  0  0  0  0  0  0  0
    3.0319    4.2430    2.4597 C   0  0  0  0  0  0  0  0  0  0  0  0
    2.4779    4.1895    1.1808 C   0  0  0  0  0  0  0  0  0  0  0  0
    1.2659    4.8280    0.9184 C   0  0  0  0  0  0  0  0  0  0  0  0
    0.6079    5.5201    1.9351 C   0  0  0  0  0  0  0  0  0  0  0  0
    3.1172    3.5173    0.1931 O   0  0  0  0  0  0  0  0  0  0  0  0
    2.4383    3.5697   -0.9783 C   0  0  0  0  0  0  0  0  0  0  0  0
    1.7880    2.4332   -1.4589 C   0  0  0  0  0  0  0  0  0  0  0  0
    1.0892    2.4871   -2.6649 C   0  0  0  0  0  0  0  0  0  0  0  0
    1.0407    3.6775   -3.3902 C   0  0  0  0  0  0  0  0  0  0  0  0
    1.6909    4.8140   -2.9096 C   0  0  0  0  0  0  0  0  0  0  0  0
    2.3897    4.7601   -1.7036 C   0  0  0  0  0  0  0  0  0  0  0  0
    0.3639    3.7297   -4.5583 C   0  0  0  0  0  0  0  0  0  0  0  0
    0.3218    4.7607   -5.1864 O   0  0  0  0  0  0  0  0  0  0  0  0
   -0.2659    2.6289   -5.0238 C   0  0  0  0  0  0  0  0  0  0  0  0
   -0.0006    2.1663   -6.3127 C   0  0  0  0  0  0  0  0  0  0  0  0
   -0.6510    1.0298   -6.7934 C   0  0  0  0  0  0  0  0  0  0  0  0
   -1.5665    0.3559   -5.9851 C   0  0  0  0  0  0  0  0  0  0  0  0
   -1.8317    0.8184   -4.6963 C   0  0  0  0  0  0  0  0  0  0  0  0
   -1.1814    1.9549   -4.2156 C   0  0  0  0  0  0  0  0  0  0  0  0
   -2.2644   -0.8638   -6.5010 C   0  0  0  0  0  0  0  0  0  0  0  0
    5.7111   -0.7734   -1.9145 H   0  0  0  0  0  0  0  0  0  0  0  0
    4.3750   -1.8087   -2.5816 H   0  0  0  0  0  0  0  0  0  0  0  0
    4.3717   -1.3405   -0.8248 H   0  0  0  0  0  0  0  0  0  0  0  0
    6.5531   -5.1859   -0.7372 H   0  0  0  0  0  0  0  0  0  0  0  0
    5.0357   -7.1001   -0.2296 H   0  0  0  0  0  0  0  0  0  0  0  0
    1.6057   -4.5618   -0.9110 H   0  0  0  0  0  0  0  0  0  0  0  0
    3.1231   -2.6476   -1.4189 H   0  0  0  0  0  0  0  0  0  0  0  0
    0.7780   -6.6898    1.7812 H   0  0  0  0  0  0  0  0  0  0  0  0
   -1.6267   -6.0484    1.6065 H   0  0  0  0  0  0  0  0  0  0  0  0
   -1.2647   -5.8627   -2.6955 H   0  0  0  0  0  0  0  0  0  0  0  0
    1.1399   -6.5045   -2.5208 H   0  0  0  0  0  0  0  0  0  0  0  0
   -5.1697   -6.8109   -0.2291 H   0  0  0  0  0  0  0  0  0  0  0  0
   -6.5531   -6.5826    1.8346 H   0  0  0  0  0  0  0  0  0  0  0  0
   -3.6549   -3.8280    3.4729 H   0  0  0  0  0  0  0  0  0  0  0  0
   -2.2716   -4.0560    1.4092 H   0  0  0  0  0  0  0  0  0  0  0  0
   -4.8135   -5.8033    6.1596 H   0  0  0  0  0  0  0  0  0  0  0  0
   -3.7805   -4.2431    7.8098 H   0  0  0  0  0  0  0  0  0  0  0  0
   -4.7828   -0.8935    5.2706 H   0  0  0  0  0  0  0  0  0  0  0  0
   -5.8161   -2.4536    3.6205 H   0  0  0  0  0  0  0  0  0  0  0  0
   -1.6267   -0.1886    6.6863 H   0  0  0  0  0  0  0  0  0  0  0  0
   -1.7763    2.1890    5.9455 H   0  0  0  0  0  0  0  0  0  0  0  0
   -6.0222    2.1719    6.7477 H   0  0  0  0  0  0  0  0  0  0  0  0
   -5.8726   -0.2056    7.4889 H   0  0  0  0  0  0  0  0  0  0  0  0
   -3.1415    5.9026    6.8667 H   0  0  0  0  0  0  0  0  0  0  0  0
   -1.0934    7.1001    6.0948 H   0  0  0  0  0  0  0  0  0  0  0  0
   -0.3280    3.9496    3.2381 H   0  0  0  0  0  0  0  0  0  0  0  0
   -2.3763    2.7523    4.0097 H   0  0  0  0  0  0  0  0  0  0  0  0
    2.8107    4.9772    4.4851 H   0  0  0  0  0  0  0  0  0  0  0  0
    3.9878    3.7395    2.6666 H   0  0  0  0  0  0  0  0  0  0  0  0
    0.8290    4.7858   -0.0902 H   0  0  0  0  0  0  0  0  0  0  0  0
   -0.3480    6.0237    1.7283 H   0  0  0  0  0  0  0  0  0  0  0  0
    1.8262    1.4944   -0.8869 H   0  0  0  0  0  0  0  0  0  0  0  0
    0.5764    1.5908   -3.0440 H   0  0  0  0  0  0  0  0  0  0  0  0
    1.6525    5.7528   -3.4816 H   0  0  0  0  0  0  0  0  0  0  0  0
    2.9026    5.6564   -1.3246 H   0  0  0  0  0  0  0  0  0  0  0  0
    0.7214    2.6978   -6.9500 H   0  0  0  0  0  0  0  0  0  0  0  0
   -0.4419    0.6650   -7.8098 H   0  0  0  0  0  0  0  0  0  0  0  0
   -2.5536    0.2868   -4.0589 H   0  0  0  0  0  0  0  0  0  0  0  0
   -1.3905    2.3198   -3.1991 H   0  0  0  0  0  0  0  0  0  0  0  0
   -1.9249   -1.0747   -7.5398 H   0  0  0  0  0  0  0  0  0  0  0  0
   -2.0228   -1.7327   -5.8487 H   0  0  0  0  0  0  0  0  0  0  0  0
   -3.3639   -0.6911   -6.4982 H   0  0  0  0  0  0  0  0  0  0  0  0
  1  2  1  0      
  1 69  1  0      
  1 70  1  0      
  1 71  1  0      
  2  3  1  0      
  3  4  1  0      
  3  8  2  0      
  4  5  2  0      
  4 72  1  0      
  5  6  1  0      
  5 73  1  0      
  6  7  2  0      
  6  9  1  0      
  7  8  1  0      
  7 74  1  0      
  8 75  1  0      
  9 10  1  0      
 10 11  1  0      
 10 15  2  0      
 11 12  2  0      
 11 76  1  0      
 12 13  1  0      
 12 77  1  0      
 13 14  2  0      
 13 16  1  0      
 14 15  1  0      
 14 78  1  0      
 15 79  1  0      
 16 17  2  0      
 16 18  1  0      
 18 19  1  0      
 18 23  2  0      
 19 20  2  0      
 19 80  1  0      
 20 21  1  0      
 20 81  1  0      
 21 22  2  0      
 21 24  1  0      
 22 23  1  0      
 22 82  1  0      
 23 83  1  0      
 24 25  1  0      
 25 26  1  0      
 25 30  2  0      
 26 27  2  0      
 26 84  1  0      
 27 28  1  0      
 27 85  1  0      
 28 29  2  0      
 28 31  1  0      
 29 30  1  0      
 29 86  1  0      
 30 87  1  0      
 31 32  1  0      
 32 33  1  0      
 32 37  2  0      
 33 34  2  0      
 33 88  1  0      
 34 35  1  0      
 34 89  1  0      
 35 36  2  0      
 35 38  1  0      
 36 37  1  0      
 36 90  1  0      
 37 91  1  0      
 38 39  2  0      
 38 40  1  0      
 40 41  1  0      
 40 45  2  0      
 41 42  2  0      
 41 92  1  0      
 42 43  1  0      
 42 93  1  0      
 43 44  2  0      
 43 46  1  0      
 44 45  1  0      
 44 94  1  0      
 45 95  1  0      
 46 47  1  0      
 47 48  1  0      
 47 52  2  0      
 48 49  2  0      
 48 96  1  0      
 49 50  1  0      
 49 97  1  0      
 50 51  2  0      
 50 53  1  0      
 51 52  1  0      
 51 98  1  0      
 52 99  1  0      
 53 54  1  0      
 54 55  1  0      
 54 59  2  0      
 55 56  2  0      
 55100  1  0      
 56 57  1  0      
 56101  1  0      
 57 58  2  0      
 57 60  1  0      
 58 59  1  0      
 58102  1  0      
 59103  1  0      
 60 61  2  0      
 60 62  1  0      
 62 63  1  0      
 62 67  2  0      
 63 64  2  0      
 63104  1  0      
 64 65  1  0      
 64105  1  0      
 65 66  2  0      
 65 68  1  0      
 66 67  1  0      
 66106  1  0      
 67107  1  0      
 68108  1  0      
 68109  1  0      
 68110  1  0      
M  END
$$$$
