Fragment
  Chem3D Core 21.007272619273D

 14 13  0  0  0  0  0  0  0  0999 V2000
   -1.5922   -0.3841    0.1922 C   0  0  0  0  0  0  0  0  0  0  0  0
   -0.2732   -1.1456    0.1922 C   0  0  0  0  0  0  0  0  0  0  0  0
    0.8849   -0.1564    0.1922 C   0  0  0  0  0  0  0  0  0  0  0  0
    0.7910    0.8760    1.6575 Cl  0  0  0  0  0  0  0  0  0  0  0  0
    2.4385   -1.0555    0.1932 Cl  0  0  0  0  0  0  0  0  0  0  0  0
    0.8044    0.7191   -1.0514 C   0  0  0  0  0  0  0  0  0  0  0  0
   -2.4385   -1.1069    0.1922 H   0  0  0  0  0  0  0  0  0  0  0  0
   -1.6509    0.2551    1.1014 H   0  0  0  0  0  0  0  0  0  0  0  0
   -1.6510    0.2557   -0.7166 H   0  0  0  0  0  0  0  0  0  0  0  0
   -0.2145   -1.7848   -0.7171 H   0  0  0  0  0  0  0  0  0  0  0  0
   -0.2144   -1.7854    1.1010 H   0  0  0  0  0  0  0  0  0  0  0  0
   -0.0809    0.4231   -1.6575 H   0  0  0  0  0  0  0  0  0  0  0  0
    0.7060    1.7854   -0.7481 H   0  0  0  0  0  0  0  0  0  0  0  0
    1.7290    0.5886   -1.6572 H   0  0  0  0  0  0  0  0  0  0  0  0
  1  2  1  0      
  1  7  1  0      
  1  8  1  0      
  1  9  1  0      
  2  3  1  0      
  2 10  1  0      
  2 11  1  0      
  3  4  1  0      
  3  5  1  0      
  3  6  1  0      
  6 12  1  0      
  6 13  1  0      
  6 14  1  0      
M  END
$$$$
