Fragment
  Chem3D Core 21.007272619283D

 17 16  0  0  0  0  0  0  0  0999 V2000
   -1.1783   -1.5096   -0.9532 C   0  0  0  0  0  0  0  0  0  0  0  0
    0.1407   -0.7482   -0.9532 C   0  0  0  0  0  0  0  0  0  0  0  0
   -0.1368    0.7493   -0.9532 C   0  0  0  0  0  0  0  0  0  0  0  0
   -0.9279    1.1150    0.2786 C   0  0  0  0  0  0  0  0  0  0  0  0
   -1.2525    2.2629    0.4693 O   0  0  0  0  0  0  0  0  0  0  0  0
   -1.2698    0.1679    1.1597 O   0  0  0  0  0  0  0  0  0  0  0  0
    1.1830    1.5094   -0.9523 C   0  0  0  0  0  0  0  0  0  0  0  0
   -0.9756   -2.6040   -0.9532 H   0  0  0  0  0  0  0  0  0  0  0  0
   -1.7613   -1.2408   -0.0440 H   0  0  0  0  0  0  0  0  0  0  0  0
   -1.7618   -1.2406   -1.8621 H   0  0  0  0  0  0  0  0  0  0  0  0
    0.7236   -1.0170   -1.8625 H   0  0  0  0  0  0  0  0  0  0  0  0
    0.7241   -1.0172   -0.0444 H   0  0  0  0  0  0  0  0  0  0  0  0
   -0.7203    1.0184   -1.8621 H   0  0  0  0  0  0  0  0  0  0  0  0
   -1.7662    0.6201    1.8625 H   0  0  0  0  0  0  0  0  0  0  0  0
    0.9813    2.6040   -0.9523 H   0  0  0  0  0  0  0  0  0  0  0  0
    1.7662    1.2401   -1.8613 H   0  0  0  0  0  0  0  0  0  0  0  0
    1.7656    1.2397   -0.0432 H   0  0  0  0  0  0  0  0  0  0  0  0
  1  2  1  0      
  1  8  1  0      
  1  9  1  0      
  1 10  1  0      
  2  3  1  0      
  2 11  1  0      
  2 12  1  0      
  3  4  1  0      
  3  7  1  0      
  3 13  1  0      
  4  5  2  0      
  4  6  1  0      
  6 14  1  0      
  7 15  1  0      
  7 16  1  0      
  7 17  1  0      
M  END
$$$$
