Fragment
  Chem3D Core 21.007272619303D

 41 43  0  0  0  0  0  0  0  0999 V2000
    3.5193    2.5442    1.1044 C   0  0  0  0  0  0  0  0  0  0  0  0
    4.8794    1.3836    1.4157 S   0  0  0  0  0  0  0  0  0  0  0  0
    3.7755   -0.0090    1.7852 C   0  0  0  0  0  0  0  0  0  0  0  0
    4.3102   -1.2536    2.1177 C   0  0  0  0  0  0  0  0  0  0  0  0
    3.4618   -2.3238    2.4015 C   0  0  0  0  0  0  0  0  0  0  0  0
    2.0788   -2.1493    2.3529 C   0  0  0  0  0  0  0  0  0  0  0  0
    1.5441   -0.9047    2.0205 C   0  0  0  0  0  0  0  0  0  0  0  0
    2.3925    0.1655    1.7366 C   0  0  0  0  0  0  0  0  0  0  0  0
    0.9750   -3.5418    2.7222 S   0  0  0  0  0  0  0  0  0  0  0  0
   -0.6054   -2.6799    2.4902 C   0  0  0  0  0  0  0  0  0  0  0  0
   -1.3978   -2.3671    3.5945 C   0  0  0  0  0  0  0  0  0  0  0  0
   -2.6124   -1.7047    3.4161 C   0  0  0  0  0  0  0  0  0  0  0  0
   -3.0343   -1.3552    2.1334 C   0  0  0  0  0  0  0  0  0  0  0  0
   -2.2418   -1.6679    1.0291 C   0  0  0  0  0  0  0  0  0  0  0  0
   -1.0273   -2.3303    1.2075 C   0  0  0  0  0  0  0  0  0  0  0  0
   -4.6147   -0.4933    1.9014 S   0  0  0  0  0  0  0  0  0  0  0  0
   -4.5590   -0.3460    0.0932 C   0  0  0  0  0  0  0  0  0  0  0  0
   -4.3306    0.8963   -0.4985 C   0  0  0  0  0  0  0  0  0  0  0  0
   -4.2879    1.0095   -1.8881 C   0  0  0  0  0  0  0  0  0  0  0  0
   -4.4734   -0.1195   -2.6859 C   0  0  0  0  0  0  0  0  0  0  0  0
   -4.7016   -1.3618   -2.0941 C   0  0  0  0  0  0  0  0  0  0  0  0
   -4.7445   -1.4750   -0.7045 C   0  0  0  0  0  0  0  0  0  0  0  0
   -4.4275    0.0020   -4.1772 C   0  0  0  0  0  0  0  0  0  0  0  0
    3.9355    3.5418    0.8391 H   0  0  0  0  0  0  0  0  0  0  0  0
    2.8959    2.1673    0.2629 H   0  0  0  0  0  0  0  0  0  0  0  0
    2.8926    2.6353    2.0197 H   0  0  0  0  0  0  0  0  0  0  0  0
    5.4009   -1.3911    2.1561 H   0  0  0  0  0  0  0  0  0  0  0  0
    3.8835   -3.3053    2.6636 H   0  0  0  0  0  0  0  0  0  0  0  0
    0.4535   -0.7671    1.9822 H   0  0  0  0  0  0  0  0  0  0  0  0
    1.9709    1.1471    1.4744 H   0  0  0  0  0  0  0  0  0  0  0  0
   -1.0650   -2.6427    4.6061 H   0  0  0  0  0  0  0  0  0  0  0  0
   -3.2375   -1.4581    4.2870 H   0  0  0  0  0  0  0  0  0  0  0  0
   -2.5746   -1.3921    0.0175 H   0  0  0  0  0  0  0  0  0  0  0  0
   -0.4023   -2.5770    0.3366 H   0  0  0  0  0  0  0  0  0  0  0  0
   -4.1842    1.7866    0.1307 H   0  0  0  0  0  0  0  0  0  0  0  0
   -4.1079    1.9892   -2.3548 H   0  0  0  0  0  0  0  0  0  0  0  0
   -4.8479   -2.2522   -2.7233 H   0  0  0  0  0  0  0  0  0  0  0  0
   -4.9245   -2.4547   -0.2378 H   0  0  0  0  0  0  0  0  0  0  0  0
   -4.2364    1.0620   -4.4579 H   0  0  0  0  0  0  0  0  0  0  0  0
   -3.6105   -0.6399   -4.5763 H   0  0  0  0  0  0  0  0  0  0  0  0
   -5.4009   -0.3254   -4.6061 H   0  0  0  0  0  0  0  0  0  0  0  0
  1  2  1  0      
  1 24  1  0      
  1 25  1  0      
  1 26  1  0      
  2  3  1  0      
  3  4  1  0      
  3  8  2  0      
  4  5  2  0      
  4 27  1  0      
  5  6  1  0      
  5 28  1  0      
  6  7  2  0      
  6  9  1  0      
  7  8  1  0      
  7 29  1  0      
  8 30  1  0      
  9 10  1  0      
 10 11  1  0      
 10 15  2  0      
 11 12  2  0      
 11 31  1  0      
 12 13  1  0      
 12 32  1  0      
 13 14  2  0      
 13 16  1  0      
 14 15  1  0      
 14 33  1  0      
 15 34  1  0      
 16 17  1  0      
 17 18  1  0      
 17 22  2  0      
 18 19  2  0      
 18 35  1  0      
 19 20  1  0      
 19 36  1  0      
 20 21  2  0      
 20 23  1  0      
 21 22  1  0      
 21 37  1  0      
 22 38  1  0      
 23 39  1  0      
 23 40  1  0      
 23 41  1  0      
M  END
$$$$
