Fragment
  Chem3D Core 21.007272619323D

 58 57  0  0  0  0  0  0  0  0999 V2000
   -9.9976   -1.7024    0.0000 C   0  0  0  0  0  0  0  0  0  0  0  0
   -8.7524   -0.9833    0.0000 N   0  0  0  0  0  0  0  0  0  0  0  0
   -7.6887   -1.9510    0.0000 C   0  0  0  0  0  0  0  0  0  0  0  0
   -6.3465   -1.2312    0.0000 C   0  0  0  0  0  0  0  0  0  0  0  0
   -5.2200   -2.2561    0.0000 C   0  0  0  0  0  0  0  0  0  0  0  0
   -3.8778   -1.5363    0.0000 C   0  0  0  0  0  0  0  0  0  0  0  0
   -2.7513   -2.5612    0.0000 C   0  0  0  0  0  0  0  0  0  0  0  0
   -1.4091   -1.8414    0.0000 C   0  0  0  0  0  0  0  0  0  0  0  0
   -0.2826   -2.8663    0.0000 C   0  0  0  0  0  0  0  0  0  0  0  0
    1.0596   -2.1465    0.0000 C   0  0  0  0  0  0  0  0  0  0  0  0
    2.1861   -3.1714    0.0000 C   0  0  0  0  0  0  0  0  0  0  0  0
    3.5283   -2.4515    0.0000 C   0  0  0  0  0  0  0  0  0  0  0  0
    4.6549   -3.4764    0.0000 C   0  0  0  0  0  0  0  0  0  0  0  0
    5.9847   -2.7633    0.0000 C   0  0  0  0  0  0  0  0  0  0  0  0
    7.0114   -3.3997    0.0000 O   0  0  0  0  0  0  0  0  0  0  0  0
    6.0266   -1.4259    0.0000 O   0  0  0  0  0  0  0  0  0  0  0  0
    7.3592   -0.9902    0.0000 C   0  0  0  0  0  0  0  0  0  0  0  0
    7.3962    0.5323    0.0000 C   0  0  0  0  0  0  0  0  0  0  0  0
    8.8438    1.0056    0.0000 C   0  0  0  0  0  0  0  0  0  0  0  0
    8.8809    2.5282    0.0000 C   0  0  0  0  0  0  0  0  0  0  0  0
   10.3285    3.0014    0.0000 C   0  0  0  0  0  0  0  0  0  0  0  0
  -10.8440   -0.9797    0.0000 H   0  0  0  0  0  0  0  0  0  0  0  0
  -10.0563   -2.3416   -0.9093 H   0  0  0  0  0  0  0  0  0  0  0  0
  -10.0564   -2.3423    0.9088 H   0  0  0  0  0  0  0  0  0  0  0  0
   -8.6907   -0.4103   -0.8416 H   0  0  0  0  0  0  0  0  0  0  0  0
   -7.7674   -2.5881    0.9093 H   0  0  0  0  0  0  0  0  0  0  0  0
   -7.7675   -2.5887   -0.9088 H   0  0  0  0  0  0  0  0  0  0  0  0
   -6.2678   -0.5942   -0.9093 H   0  0  0  0  0  0  0  0  0  0  0  0
   -6.2677   -0.5935    0.9088 H   0  0  0  0  0  0  0  0  0  0  0  0
   -5.2987   -2.8931    0.9093 H   0  0  0  0  0  0  0  0  0  0  0  0
   -5.2988   -2.8938   -0.9088 H   0  0  0  0  0  0  0  0  0  0  0  0
   -3.7991   -0.8992   -0.9093 H   0  0  0  0  0  0  0  0  0  0  0  0
   -3.7990   -0.8986    0.9088 H   0  0  0  0  0  0  0  0  0  0  0  0
   -2.8300   -3.1982    0.9093 H   0  0  0  0  0  0  0  0  0  0  0  0
   -2.8301   -3.1989   -0.9088 H   0  0  0  0  0  0  0  0  0  0  0  0
   -1.3304   -1.2043   -0.9093 H   0  0  0  0  0  0  0  0  0  0  0  0
   -1.3303   -1.2037    0.9088 H   0  0  0  0  0  0  0  0  0  0  0  0
   -0.3613   -3.5033    0.9093 H   0  0  0  0  0  0  0  0  0  0  0  0
   -0.3614   -3.5039   -0.9088 H   0  0  0  0  0  0  0  0  0  0  0  0
    1.1383   -1.5094   -0.9093 H   0  0  0  0  0  0  0  0  0  0  0  0
    1.1384   -1.5088    0.9088 H   0  0  0  0  0  0  0  0  0  0  0  0
    2.1074   -3.8084    0.9093 H   0  0  0  0  0  0  0  0  0  0  0  0
    2.1073   -3.8090   -0.9088 H   0  0  0  0  0  0  0  0  0  0  0  0
    3.6070   -1.8145   -0.9093 H   0  0  0  0  0  0  0  0  0  0  0  0
    3.6071   -1.8139    0.9088 H   0  0  0  0  0  0  0  0  0  0  0  0
    4.5761   -4.1135    0.9093 H   0  0  0  0  0  0  0  0  0  0  0  0
    4.5760   -4.1141   -0.9088 H   0  0  0  0  0  0  0  0  0  0  0  0
    7.8742   -1.3733    0.9093 H   0  0  0  0  0  0  0  0  0  0  0  0
    7.8747   -1.3737   -0.9088 H   0  0  0  0  0  0  0  0  0  0  0  0
    6.8812    0.9154   -0.9093 H   0  0  0  0  0  0  0  0  0  0  0  0
    6.8807    0.9158    0.9088 H   0  0  0  0  0  0  0  0  0  0  0  0
    9.3589    0.6225    0.9093 H   0  0  0  0  0  0  0  0  0  0  0  0
    9.3594    0.6221   -0.9088 H   0  0  0  0  0  0  0  0  0  0  0  0
    8.3659    2.9113   -0.9093 H   0  0  0  0  0  0  0  0  0  0  0  0
    8.3654    2.9117    0.9088 H   0  0  0  0  0  0  0  0  0  0  0  0
   10.3556    4.1141    0.0000 H   0  0  0  0  0  0  0  0  0  0  0  0
   10.8435    2.6183    0.9093 H   0  0  0  0  0  0  0  0  0  0  0  0
   10.8440    2.6180   -0.9088 H   0  0  0  0  0  0  0  0  0  0  0  0
  1  2  1  0      
  1 22  1  0      
  1 23  1  0      
  1 24  1  0      
  2  3  1  0      
  2 25  1  0      
  3  4  1  0      
  3 26  1  0      
  3 27  1  0      
  4  5  1  0      
  4 28  1  0      
  4 29  1  0      
  5  6  1  0      
  5 30  1  0      
  5 31  1  0      
  6  7  1  0      
  6 32  1  0      
  6 33  1  0      
  7  8  1  0      
  7 34  1  0      
  7 35  1  0      
  8  9  1  0      
  8 36  1  0      
  8 37  1  0      
  9 10  1  0      
  9 38  1  0      
  9 39  1  0      
 10 11  1  0      
 10 40  1  0      
 10 41  1  0      
 11 12  1  0      
 11 42  1  0      
 11 43  1  0      
 12 13  1  0      
 12 44  1  0      
 12 45  1  0      
 13 14  1  0      
 13 46  1  0      
 13 47  1  0      
 14 15  2  0      
 14 16  1  0      
 16 17  1  0      
 17 18  1  0      
 17 48  1  0      
 17 49  1  0      
 18 19  1  0      
 18 50  1  0      
 18 51  1  0      
 19 20  1  0      
 19 52  1  0      
 19 53  1  0      
 20 21  1  0      
 20 54  1  0      
 20 55  1  0      
 21 56  1  0      
 21 57  1  0      
 21 58  1  0      
M  END
$$$$
