Fragment
  Chem3D Core 21.007272619273D

 24 24  0  0  0  0  0  0  0  0999 V2000
    2.6647    0.9652   -1.2277 C   0  0  0  0  0  0  0  0  0  0  0  0
    1.9579    0.7768    0.1082 C   0  0  0  0  0  0  0  0  0  0  0  0
    0.5091    1.2300   -0.0148 C   0  0  0  0  0  0  0  0  0  0  0  0
   -0.4014    0.0815    0.2899 C   0  0  0  0  0  0  0  0  0  0  0  0
    0.1333   -1.1631    0.6224 C   0  0  0  0  0  0  0  0  0  0  0  0
   -0.7151   -2.2333    0.9062 C   0  0  0  0  0  0  0  0  0  0  0  0
   -2.0981   -2.0588    0.8576 C   0  0  0  0  0  0  0  0  0  0  0  0
   -2.6328   -0.8142    0.5252 C   0  0  0  0  0  0  0  0  0  0  0  0
   -1.7844    0.2560    0.2413 C   0  0  0  0  0  0  0  0  0  0  0  0
    0.2463    2.3607    0.9711 C   0  0  0  0  0  0  0  0  0  0  0  0
    3.7235    0.6340   -1.1378 H   0  0  0  0  0  0  0  0  0  0  0  0
    2.1516    0.3586   -2.0071 H   0  0  0  0  0  0  0  0  0  0  0  0
    2.6355    2.0403   -1.5142 H   0  0  0  0  0  0  0  0  0  0  0  0
    2.4710    1.3835    0.8876 H   0  0  0  0  0  0  0  0  0  0  0  0
    1.9871   -0.2983    0.3947 H   0  0  0  0  0  0  0  0  0  0  0  0
    0.3195    1.5887   -1.0512 H   0  0  0  0  0  0  0  0  0  0  0  0
    1.2240   -1.3007    0.6608 H   0  0  0  0  0  0  0  0  0  0  0  0
   -0.2934   -3.2149    1.1683 H   0  0  0  0  0  0  0  0  0  0  0  0
   -2.7671   -2.9028    1.0814 H   0  0  0  0  0  0  0  0  0  0  0  0
   -3.7235   -0.6766    0.4869 H   0  0  0  0  0  0  0  0  0  0  0  0
   -2.2060    1.2376   -0.0209 H   0  0  0  0  0  0  0  0  0  0  0  0
   -0.8123    2.6927    0.8820 H   0  0  0  0  0  0  0  0  0  0  0  0
    0.9227    3.2149    0.7441 H   0  0  0  0  0  0  0  0  0  0  0  0
    0.4362    2.0010    2.0071 H   0  0  0  0  0  0  0  0  0  0  0  0
  1  2  1  0      
  1 11  1  0      
  1 12  1  0      
  1 13  1  0      
  2  3  1  0      
  2 14  1  0      
  2 15  1  0      
  3  4  1  0      
  3 10  1  0      
  3 16  1  0      
  4  5  1  0      
  4  9  2  0      
  5  6  2  0      
  5 17  1  0      
  6  7  1  0      
  6 18  1  0      
  7  8  2  0      
  7 19  1  0      
  8  9  1  0      
  8 20  1  0      
  9 21  1  0      
 10 22  1  0      
 10 23  1  0      
 10 24  1  0      
M  END
$$$$
