Fragment
  Chem3D Core 21.007272619293D

 29 31  0  0  0  0  0  0  0  0999 V2000
    5.6106    2.6842    1.2511 C   0  0  0  0  0  0  0  0  0  0  0  0
    4.4370    1.8717    0.7999 C   0  0  0  0  0  0  0  0  0  0  0  0
    4.5110    0.8711   -0.1442 C   0  0  0  0  0  0  0  0  0  0  0  0
    3.2432    0.2647   -0.3807 C   0  0  0  0  0  0  0  0  0  0  0  0
    2.2501    0.8258    0.3920 C   0  0  0  0  0  0  0  0  0  0  0  0
    2.8459    2.0770    1.3965 S   0  0  0  0  0  0  0  0  0  0  0  0
    0.9709    0.4384    0.3608 C   0  0  0  0  0  0  0  0  0  0  0  0
   -0.0222    0.9994    1.1335 C   0  0  0  0  0  0  0  0  0  0  0  0
   -1.2900    0.3931    0.8970 C   0  0  0  0  0  0  0  0  0  0  0  0
   -1.2160   -0.6075   -0.0471 C   0  0  0  0  0  0  0  0  0  0  0  0
    0.3750   -0.8128   -0.6437 S   0  0  0  0  0  0  0  0  0  0  0  0
   -2.2642   -1.3331   -0.4501 C   0  0  0  0  0  0  0  0  0  0  0  0
   -2.1902   -2.3337   -1.3942 C   0  0  0  0  0  0  0  0  0  0  0  0
   -3.4580   -2.9401   -1.6307 C   0  0  0  0  0  0  0  0  0  0  0  0
   -4.4511   -2.3790   -0.8580 C   0  0  0  0  0  0  0  0  0  0  0  0
   -3.8553   -1.1278    0.1465 S   0  0  0  0  0  0  0  0  0  0  0  0
   -5.8834   -2.8128   -0.8929 C   0  0  0  0  0  0  0  0  0  0  0  0
    6.5238    2.3506    0.7092 H   0  0  0  0  0  0  0  0  0  0  0  0
    5.4226    3.7594    1.0333 H   0  0  0  0  0  0  0  0  0  0  0  0
    5.7580    2.5467    2.3457 H   0  0  0  0  0  0  0  0  0  0  0  0
    5.4391    0.5752   -0.6552 H   0  0  0  0  0  0  0  0  0  0  0  0
    3.0772   -0.5545   -1.0957 H   0  0  0  0  0  0  0  0  0  0  0  0
    0.1439    1.8186    1.8486 H   0  0  0  0  0  0  0  0  0  0  0  0
   -2.2181    0.6891    1.4080 H   0  0  0  0  0  0  0  0  0  0  0  0
   -1.2621   -2.6296   -1.9051 H   0  0  0  0  0  0  0  0  0  0  0  0
   -3.6240   -3.7594   -2.3457 H   0  0  0  0  0  0  0  0  0  0  0  0
   -6.0032   -3.6404   -1.6274 H   0  0  0  0  0  0  0  0  0  0  0  0
   -6.1879   -3.1672    0.1173 H   0  0  0  0  0  0  0  0  0  0  0  0
   -6.5238   -1.9539   -1.1943 H   0  0  0  0  0  0  0  0  0  0  0  0
  1  2  1  0      
  1 18  1  0      
  1 19  1  0      
  1 20  1  0      
  2  3  2  0      
  2  6  1  0      
  3  4  1  0      
  3 21  1  0      
  4  5  2  0      
  4 22  1  0      
  5  6  1  0      
  5  7  1  0      
  7  8  2  0      
  7 11  1  0      
  8  9  1  0      
  8 23  1  0      
  9 10  2  0      
  9 24  1  0      
 10 11  1  0      
 10 12  1  0      
 12 13  2  0      
 12 16  1  0      
 13 14  1  0      
 13 25  1  0      
 14 15  2  0      
 14 26  1  0      
 15 16  1  0      
 15 17  1  0      
 17 27  1  0      
 17 28  1  0      
 17 29  1  0      
M  END
$$$$
