Fragment
  Chem3D Core 21.007272619293D

 26 25  0  0  0  0  0  0  0  0999 V2000
   -2.6319   -3.4428   -0.0000 C   0  0  0  0  0  0  0  0  0  0  0  0
   -1.4177   -2.7419   -0.0000 O   0  0  0  0  0  0  0  0  0  0  0  0
   -0.3958   -3.7018   -0.0000 C   0  0  0  0  0  0  0  0  0  0  0  0
    0.9452   -3.0098   -0.0000 C   0  0  0  0  0  0  0  0  0  0  0  0
    1.9617   -3.6626   -0.0000 O   0  0  0  0  0  0  0  0  0  0  0  0
    1.0084   -1.6733   -0.0000 O   0  0  0  0  0  0  0  0  0  0  0  0
    2.3478   -1.2589   -0.0000 C   0  0  0  0  0  0  0  0  0  0  0  0
    2.4085    0.2489   -0.0000 C   0  0  0  0  0  0  0  0  0  0  0  0
    3.4782    0.8102   -0.0000 O   0  0  0  0  0  0  0  0  0  0  0  0
    1.2777    0.9640   -0.0000 O   0  0  0  0  0  0  0  0  0  0  0  0
    1.5789    2.3332   -0.0000 C   0  0  0  0  0  0  0  0  0  0  0  0
    0.2979    3.1308   -0.0000 C   0  0  0  0  0  0  0  0  0  0  0  0
    0.3381    4.3381   -0.0000 O   0  0  0  0  0  0  0  0  0  0  0  0
   -1.0333    2.4202   -0.0000 C   0  0  0  0  0  0  0  0  0  0  0  0
   -3.4782   -2.7198   -0.0000 H   0  0  0  0  0  0  0  0  0  0  0  0
   -2.6907   -4.0820   -0.9093 H   0  0  0  0  0  0  0  0  0  0  0  0
   -2.6908   -4.0826    0.9088 H   0  0  0  0  0  0  0  0  0  0  0  0
   -0.4846   -4.3375    0.9093 H   0  0  0  0  0  0  0  0  0  0  0  0
   -0.4847   -4.3381   -0.9088 H   0  0  0  0  0  0  0  0  0  0  0  0
    2.8566   -1.6502    0.9093 H   0  0  0  0  0  0  0  0  0  0  0  0
    2.8571   -1.6506   -0.9088 H   0  0  0  0  0  0  0  0  0  0  0  0
    2.1704    2.5824    0.9093 H   0  0  0  0  0  0  0  0  0  0  0  0
    2.1710    2.5826   -0.9088 H   0  0  0  0  0  0  0  0  0  0  0  0
   -0.8670    1.3197   -0.0000 H   0  0  0  0  0  0  0  0  0  0  0  0
   -1.6070    2.7082    0.9093 H   0  0  0  0  0  0  0  0  0  0  0  0
   -1.6076    2.7085   -0.9088 H   0  0  0  0  0  0  0  0  0  0  0  0
  1  2  1  0      
  1 15  1  0      
  1 16  1  0      
  1 17  1  0      
  2  3  1  0      
  3  4  1  0      
  3 18  1  0      
  3 19  1  0      
  4  5  2  0      
  4  6  1  0      
  6  7  1  0      
  7  8  1  0      
  7 20  1  0      
  7 21  1  0      
  8  9  2  0      
  8 10  1  0      
 10 11  1  0      
 11 12  1  0      
 11 22  1  0      
 11 23  1  0      
 12 13  2  0      
 12 14  1  0      
 14 24  1  0      
 14 25  1  0      
 14 26  1  0      
M  END
$$$$
