Fragment
  Chem3D Core 21.007272619273D

 35 34  0  0  0  0  0  0  0  0999 V2000
    3.6569    0.6645   -1.2413 C   0  0  0  0  0  0  0  0  0  0  0  0
    2.3380   -0.0972   -1.2413 C   0  0  0  0  0  0  0  0  0  0  0  0
    1.1798    0.8917   -1.2413 C   0  0  0  0  0  0  0  0  0  0  0  0
    1.2593    1.7678   -2.4846 C   0  0  0  0  0  0  0  0  0  0  0  0
   -0.1383    0.1287   -1.2422 C   0  0  0  0  0  0  0  0  0  0  0  0
   -0.9384    0.4946    0.0009 C   0  0  0  0  0  0  0  0  0  0  0  0
   -1.2192    1.9915    0.0024 C   0  0  0  0  0  0  0  0  0  0  0  0
   -2.2565   -0.2684   -0.0018 C   0  0  0  0  0  0  0  0  0  0  0  0
   -2.3385   -1.1459    1.2403 C   0  0  0  0  0  0  0  0  0  0  0  0
   -2.2608   -0.2726    2.4857 C   0  0  0  0  0  0  0  0  0  0  0  0
   -3.6574   -1.9075    1.2367 C   0  0  0  0  0  0  0  0  0  0  0  0
    4.5033   -0.0582   -1.2413 H   0  0  0  0  0  0  0  0  0  0  0  0
    3.7155    1.3037   -2.1506 H   0  0  0  0  0  0  0  0  0  0  0  0
    3.7156    1.3043   -0.3325 H   0  0  0  0  0  0  0  0  0  0  0  0
    2.2794   -0.7364   -0.3320 H   0  0  0  0  0  0  0  0  0  0  0  0
    2.2793   -0.7370   -2.1501 H   0  0  0  0  0  0  0  0  0  0  0  0
    1.2385    1.5316   -0.3325 H   0  0  0  0  0  0  0  0  0  0  0  0
    0.4128    2.4905   -2.4846 H   0  0  0  0  0  0  0  0  0  0  0  0
    2.2225    2.3254   -2.4839 H   0  0  0  0  0  0  0  0  0  0  0  0
    1.2006    1.1279   -3.3934 H   0  0  0  0  0  0  0  0  0  0  0  0
   -0.7217    0.3982   -2.1509 H   0  0  0  0  0  0  0  0  0  0  0  0
    0.0665   -0.9653   -1.2427 H   0  0  0  0  0  0  0  0  0  0  0  0
   -0.3550    0.2259    0.9099 H   0  0  0  0  0  0  0  0  0  0  0  0
   -1.8039    2.2590    0.9109 H   0  0  0  0  0  0  0  0  0  0  0  0
   -0.2560    2.5491    0.0044 H   0  0  0  0  0  0  0  0  0  0  0  0
   -1.8026    2.2603   -0.9065 H   0  0  0  0  0  0  0  0  0  0  0  0
   -3.1029    0.4544   -0.0013 H   0  0  0  0  0  0  0  0  0  0  0  0
   -2.3133   -0.9071   -0.9115 H   0  0  0  0  0  0  0  0  0  0  0  0
   -1.4918   -1.8683    1.2406 H   0  0  0  0  0  0  0  0  0  0  0  0
   -2.3207   -0.9139    3.3934 H   0  0  0  0  0  0  0  0  0  0  0  0
   -1.2970    0.2840    2.4883 H   0  0  0  0  0  0  0  0  0  0  0  0
   -3.1075    0.4498    2.4855 H   0  0  0  0  0  0  0  0  0  0  0  0
   -3.7183   -2.5491    2.1441 H   0  0  0  0  0  0  0  0  0  0  0  0
   -3.7139   -2.5462    0.3269 H   0  0  0  0  0  0  0  0  0  0  0  0
   -4.5033   -1.1842    1.2365 H   0  0  0  0  0  0  0  0  0  0  0  0
  1  2  1  0      
  1 12  1  0      
  1 13  1  0      
  1 14  1  0      
  2  3  1  0      
  2 15  1  0      
  2 16  1  0      
  3  4  1  0      
  3  5  1  0      
  3 17  1  0      
  4 18  1  0      
  4 19  1  0      
  4 20  1  0      
  5  6  1  0      
  5 21  1  0      
  5 22  1  0      
  6  7  1  0      
  6  8  1  0      
  6 23  1  0      
  7 24  1  0      
  7 25  1  0      
  7 26  1  0      
  8  9  1  0      
  8 27  1  0      
  8 28  1  0      
  9 10  1  0      
  9 11  1  0      
  9 29  1  0      
 10 30  1  0      
 10 31  1  0      
 10 32  1  0      
 11 33  1  0      
 11 34  1  0      
 11 35  1  0      
M  END
$$$$
