Fragment
  Chem3D Core 21.007272619283D

 35 34  0  0  0  0  0  0  0  0999 V2000
   -2.9411   -2.5245    0.9980 C   0  0  0  0  0  0  0  0  0  0  0  0
   -1.6221   -1.7630    0.9980 C   0  0  0  0  0  0  0  0  0  0  0  0
   -1.8996   -0.2655    0.9980 C   0  0  0  0  0  0  0  0  0  0  0  0
   -2.6907    0.1002    2.2298 C   0  0  0  0  0  0  0  0  0  0  0  0
   -3.0154    1.2480    2.4205 O   0  0  0  0  0  0  0  0  0  0  0  0
   -3.0326   -0.8469    3.1109 O   0  0  0  0  0  0  0  0  0  0  0  0
   -0.5799    0.4947    0.9989 C   0  0  0  0  0  0  0  0  0  0  0  0
   -0.4968    1.3706   -0.2443 C   0  0  0  0  0  0  0  0  0  0  0  0
   -1.6423    2.3529   -0.2457 C   0  0  0  0  0  0  0  0  0  0  0  0
   -1.7590    3.1432   -1.1519 O   0  0  0  0  0  0  0  0  0  0  0  0
   -2.5286    2.3486    0.7566 O   0  0  0  0  0  0  0  0  0  0  0  0
    0.8229    2.1307   -0.2416 C   0  0  0  0  0  0  0  0  0  0  0  0
    1.6239    1.7631   -1.4837 C   0  0  0  0  0  0  0  0  0  0  0  0
    0.8361    2.1289   -2.7176 C   0  0  0  0  0  0  0  0  0  0  0  0
    1.2978    1.9177   -3.8137 O   0  0  0  0  0  0  0  0  0  0  0  0
   -0.3739    2.6873   -2.5977 O   0  0  0  0  0  0  0  0  0  0  0  0
    2.9428    2.5246   -1.4801 C   0  0  0  0  0  0  0  0  0  0  0  0
   -2.7383   -3.6188    0.9980 H   0  0  0  0  0  0  0  0  0  0  0  0
   -3.5240   -2.2557    1.9072 H   0  0  0  0  0  0  0  0  0  0  0  0
   -3.5246   -2.2555    0.0891 H   0  0  0  0  0  0  0  0  0  0  0  0
   -1.0392   -2.0317    0.0887 H   0  0  0  0  0  0  0  0  0  0  0  0
   -1.0386   -2.0320    1.9068 H   0  0  0  0  0  0  0  0  0  0  0  0
   -2.4831    0.0035    0.0891 H   0  0  0  0  0  0  0  0  0  0  0  0
   -3.5290   -0.3947    3.8137 H   0  0  0  0  0  0  0  0  0  0  0  0
   -0.5216    1.1347    1.9076 H   0  0  0  0  0  0  0  0  0  0  0  0
    0.2652   -0.2296    0.9993 H   0  0  0  0  0  0  0  0  0  0  0  0
   -0.5557    0.7309   -1.1532 H   0  0  0  0  0  0  0  0  0  0  0  0
   -3.1686    3.0515    0.5535 H   0  0  0  0  0  0  0  0  0  0  0  0
    0.6201    3.2251   -0.2420 H   0  0  0  0  0  0  0  0  0  0  0  0
    1.4045    1.8606    0.6681 H   0  0  0  0  0  0  0  0  0  0  0  0
    1.8263    0.6687   -1.4839 H   0  0  0  0  0  0  0  0  0  0  0  0
   -0.6931    2.8362   -3.5036 H   0  0  0  0  0  0  0  0  0  0  0  0
    3.5290    2.2566   -2.3875 H   0  0  0  0  0  0  0  0  0  0  0  0
    3.5242    2.2543   -0.5703 H   0  0  0  0  0  0  0  0  0  0  0  0
    2.7393    3.6188   -1.4799 H   0  0  0  0  0  0  0  0  0  0  0  0
  1  2  1  0      
  1 18  1  0      
  1 19  1  0      
  1 20  1  0      
  2  3  1  0      
  2 21  1  0      
  2 22  1  0      
  3  4  1  0      
  3  7  1  0      
  3 23  1  0      
  4  5  2  0      
  4  6  1  0      
  6 24  1  0      
  7  8  1  0      
  7 25  1  0      
  7 26  1  0      
  8  9  1  0      
  8 12  1  0      
  8 27  1  0      
  9 10  2  0      
  9 11  1  0      
 11 28  1  0      
 12 13  1  0      
 12 29  1  0      
 12 30  1  0      
 13 14  1  0      
 13 17  1  0      
 13 31  1  0      
 14 15  2  0      
 14 16  1  0      
 16 32  1  0      
 17 33  1  0      
 17 34  1  0      
 17 35  1  0      
M  END
$$$$
