Fragment
  Chem3D Core 21.007272619293D

 17 16  0  0  0  0  0  0  0  0999 V2000
   -1.8737   -0.2347    0.6217 C   0  0  0  0  0  0  0  0  0  0  0  0
   -0.6594    0.4663    0.6217 O   0  0  0  0  0  0  0  0  0  0  0  0
    0.3625   -0.4935    0.6217 C   0  0  0  0  0  0  0  0  0  0  0  0
    0.2417   -1.3648   -0.6217 C   0  0  0  0  0  0  0  0  0  0  0  0
    1.7028    0.1998    0.6207 C   0  0  0  0  0  0  0  0  0  0  0  0
    2.7199   -0.4518    0.6206 O   0  0  0  0  0  0  0  0  0  0  0  0
    1.7724    1.7072    0.6200 C   0  0  0  0  0  0  0  0  0  0  0  0
   -2.7199    0.4882    0.6217 H   0  0  0  0  0  0  0  0  0  0  0  0
   -1.9324   -0.8739   -0.2876 H   0  0  0  0  0  0  0  0  0  0  0  0
   -1.9325   -0.8745    1.5305 H   0  0  0  0  0  0  0  0  0  0  0  0
    0.2736   -1.1299    1.5305 H   0  0  0  0  0  0  0  0  0  0  0  0
    1.0530   -2.1268   -0.6217 H   0  0  0  0  0  0  0  0  0  0  0  0
   -0.7469   -1.8762   -0.6210 H   0  0  0  0  0  0  0  0  0  0  0  0
    0.3306   -0.7285   -1.5305 H   0  0  0  0  0  0  0  0  0  0  0  0
    0.7415    2.1268    0.6203 H   0  0  0  0  0  0  0  0  0  0  0  0
    2.3135    2.0535    1.5289 H   0  0  0  0  0  0  0  0  0  0  0  0
    2.3133    2.0530   -0.2892 H   0  0  0  0  0  0  0  0  0  0  0  0
  1  2  1  0      
  1  8  1  0      
  1  9  1  0      
  1 10  1  0      
  2  3  1  0      
  3  4  1  0      
  3  5  1  0      
  3 11  1  0      
  4 12  1  0      
  4 13  1  0      
  4 14  1  0      
  5  6  2  0      
  5  7  1  0      
  7 15  1  0      
  7 16  1  0      
  7 17  1  0      
M  END
$$$$
