Fragment
  Chem3D Core 21.007272619283D

 53 52  0  0  0  0  0  0  0  0999 V2000
    0.4713   -3.3105   -1.2434 C   0  0  0  0  0  0  0  0  0  0  0  0
   -0.8477   -2.5491   -1.2434 C   0  0  0  0  0  0  0  0  0  0  0  0
   -0.5702   -1.0516   -1.2434 C   0  0  0  0  0  0  0  0  0  0  0  0
    0.2283   -0.6825   -2.4867 C   0  0  0  0  0  0  0  0  0  0  0  0
   -1.8778   -0.2984   -1.2443 C   0  0  0  0  0  0  0  0  0  0  0  0
   -1.8790    0.9096   -1.2445 O   0  0  0  0  0  0  0  0  0  0  0  0
   -3.0358   -0.9686   -1.2450 O   0  0  0  0  0  0  0  0  0  0  0  0
   -4.1092   -0.0667   -1.2457 C   0  0  0  0  0  0  0  0  0  0  0  0
    0.2283   -0.6835    0.0002 C   0  0  0  0  0  0  0  0  0  0  0  0
    0.5063    0.8140    0.0011 C   0  0  0  0  0  0  0  0  0  0  0  0
   -0.1065    1.4455   -1.2420 C   0  0  0  0  0  0  0  0  0  0  0  0
   -0.1025    1.4371    1.2332 C   0  0  0  0  0  0  0  0  0  0  0  0
    0.0054    2.6248    1.4255 O   0  0  0  0  0  0  0  0  0  0  0  0
   -0.7617    0.6741    2.1127 O   0  0  0  0  0  0  0  0  0  0  0  0
   -1.2359    1.4646    3.1691 C   0  0  0  0  0  0  0  0  0  0  0  0
    2.0108    1.0507    0.0014 C   0  0  0  0  0  0  0  0  0  0  0  0
    2.2898    2.5480    0.0022 C   0  0  0  0  0  0  0  0  0  0  0  0
    0.9716    3.3107    0.0025 C   0  0  0  0  0  0  0  0  0  0  0  0
    3.0806    2.9122   -1.2302 C   0  0  0  0  0  0  0  0  0  0  0  0
    3.4069    4.0595   -1.4213 O   0  0  0  0  0  0  0  0  0  0  0  0
    3.4204    1.9644   -2.1114 O   0  0  0  0  0  0  0  0  0  0  0  0
    4.1461    2.5330   -3.1677 C   0  0  0  0  0  0  0  0  0  0  0  0
    3.0884    2.9146    1.2461 C   0  0  0  0  0  0  0  0  0  0  0  0
    0.2685   -4.4049   -1.2434 H   0  0  0  0  0  0  0  0  0  0  0  0
    1.0542   -3.0418   -2.1527 H   0  0  0  0  0  0  0  0  0  0  0  0
    1.0548   -3.0415   -0.3346 H   0  0  0  0  0  0  0  0  0  0  0  0
   -1.4306   -2.8178   -0.3342 H   0  0  0  0  0  0  0  0  0  0  0  0
   -1.4312   -2.8181   -2.1522 H   0  0  0  0  0  0  0  0  0  0  0  0
    0.4311    0.4119   -2.4867 H   0  0  0  0  0  0  0  0  0  0  0  0
    1.1927   -1.2380   -2.4861 H   0  0  0  0  0  0  0  0  0  0  0  0
   -0.3552   -0.9515   -3.3955 H   0  0  0  0  0  0  0  0  0  0  0  0
   -5.0686   -0.6309   -1.2463 H   0  0  0  0  0  0  0  0  0  0  0  0
   -4.0561    0.5731   -0.3365 H   0  0  0  0  0  0  0  0  0  0  0  0
   -4.0549    0.5735   -2.1546 H   0  0  0  0  0  0  0  0  0  0  0  0
   -0.3560   -0.9523    0.9086 H   0  0  0  0  0  0  0  0  0  0  0  0
    1.1923   -1.2396   -0.0000 H   0  0  0  0  0  0  0  0  0  0  0  0
    0.0966    2.5398   -1.2413 H   0  0  0  0  0  0  0  0  0  0  0  0
    0.3425    0.9859   -2.1508 H   0  0  0  0  0  0  0  0  0  0  0  0
   -1.2060    1.2725   -1.2422 H   0  0  0  0  0  0  0  0  0  0  0  0
   -1.7828    0.8237    3.8963 H   0  0  0  0  0  0  0  0  0  0  0  0
   -0.3768    1.9545    3.6798 H   0  0  0  0  0  0  0  0  0  0  0  0
   -1.9241    2.2429    2.7698 H   0  0  0  0  0  0  0  0  0  0  0  0
    2.4581    0.5900    0.9104 H   0  0  0  0  0  0  0  0  0  0  0  0
    2.4588    0.5906   -0.9076 H   0  0  0  0  0  0  0  0  0  0  0  0
    1.1755    4.4049    0.0032 H   0  0  0  0  0  0  0  0  0  0  0  0
    0.3883    3.0421    0.9116 H   0  0  0  0  0  0  0  0  0  0  0  0
    0.3879    3.0428   -0.9065 H   0  0  0  0  0  0  0  0  0  0  0  0
    4.4252    1.7393   -3.8963 H   0  0  0  0  0  0  0  0  0  0  0  0
    3.5201    3.2996   -3.6768 H   0  0  0  0  0  0  0  0  0  0  0  0
    5.0686    3.0112   -2.7688 H   0  0  0  0  0  0  0  0  0  0  0  0
    3.2738    1.9993    1.8517 H   0  0  0  0  0  0  0  0  0  0  0  0
    4.0616    3.3617    0.9431 H   0  0  0  0  0  0  0  0  0  0  0  0
    2.5138    3.6502    1.8523 H   0  0  0  0  0  0  0  0  0  0  0  0
  1  2  1  0      
  1 24  1  0      
  1 25  1  0      
  1 26  1  0      
  2  3  1  0      
  2 27  1  0      
  2 28  1  0      
  3  4  1  0      
  3  5  1  0      
  3  9  1  0      
  4 29  1  0      
  4 30  1  0      
  4 31  1  0      
  5  6  2  0      
  5  7  1  0      
  7  8  1  0      
  8 32  1  0      
  8 33  1  0      
  8 34  1  0      
  9 10  1  0      
  9 35  1  0      
  9 36  1  0      
 10 11  1  0      
 10 12  1  0      
 10 16  1  0      
 11 37  1  0      
 11 38  1  0      
 11 39  1  0      
 12 13  2  0      
 12 14  1  0      
 14 15  1  0      
 15 40  1  0      
 15 41  1  0      
 15 42  1  0      
 16 17  1  0      
 16 43  1  0      
 16 44  1  0      
 17 18  1  0      
 17 19  1  0      
 17 23  1  0      
 18 45  1  0      
 18 46  1  0      
 18 47  1  0      
 19 20  2  0      
 19 21  1  0      
 21 22  1  0      
 22 48  1  0      
 22 49  1  0      
 22 50  1  0      
 23 51  1  0      
 23 52  1  0      
 23 53  1  0      
M  END
$$$$
