Fragment
  Chem3D Core 21.007272619273D

 44 43  0  0  0  0  0  0  0  0999 V2000
    2.9755   -2.2490   -0.6224 C   0  0  0  0  0  0  0  0  0  0  0  0
    1.6567   -3.0107   -0.6224 C   0  0  0  0  0  0  0  0  0  0  0  0
    0.4984   -2.0217   -0.6224 C   0  0  0  0  0  0  0  0  0  0  0  0
    0.5779   -1.1457   -1.8657 C   0  0  0  0  0  0  0  0  0  0  0  0
   -0.8196   -2.7848   -0.6233 C   0  0  0  0  0  0  0  0  0  0  0  0
    0.5787   -1.1462    0.6212 C   0  0  0  0  0  0  0  0  0  0  0  0
   -0.5792   -0.1569    0.6221 C   0  0  0  0  0  0  0  0  0  0  0  0
   -1.8983   -0.9182    0.6224 C   0  0  0  0  0  0  0  0  0  0  0  0
   -0.4981    0.7173    1.8666 C   0  0  0  0  0  0  0  0  0  0  0  0
   -0.4991    0.7191   -0.6212 C   0  0  0  0  0  0  0  0  0  0  0  0
   -1.6567    1.7088   -0.6212 C   0  0  0  0  0  0  0  0  0  0  0  0
   -1.5766    2.5848   -1.8645 C   0  0  0  0  0  0  0  0  0  0  0  0
   -2.9753    0.9466   -0.6221 C   0  0  0  0  0  0  0  0  0  0  0  0
   -1.5758    2.5842    0.6224 C   0  0  0  0  0  0  0  0  0  0  0  0
    3.8220   -2.9717   -0.6224 H   0  0  0  0  0  0  0  0  0  0  0  0
    3.0342   -1.6098   -1.5317 H   0  0  0  0  0  0  0  0  0  0  0  0
    3.0342   -1.6092    0.2864 H   0  0  0  0  0  0  0  0  0  0  0  0
    1.5980   -3.6499    0.2869 H   0  0  0  0  0  0  0  0  0  0  0  0
    1.5980   -3.6505   -1.5312 H   0  0  0  0  0  0  0  0  0  0  0  0
   -0.2685   -0.4230   -1.8657 H   0  0  0  0  0  0  0  0  0  0  0  0
    1.5411   -0.5881   -1.8650 H   0  0  0  0  0  0  0  0  0  0  0  0
    0.5192   -1.7855   -2.7745 H   0  0  0  0  0  0  0  0  0  0  0  0
   -1.6668   -2.0629   -0.6233 H   0  0  0  0  0  0  0  0  0  0  0  0
   -0.8780   -3.4245    0.2856 H   0  0  0  0  0  0  0  0  0  0  0  0
   -0.8773   -3.4242   -1.5325 H   0  0  0  0  0  0  0  0  0  0  0  0
    0.5195   -1.7866    1.5296 H   0  0  0  0  0  0  0  0  0  0  0  0
    1.5424   -0.5893    0.6210 H   0  0  0  0  0  0  0  0  0  0  0  0
   -2.7445   -0.1952    0.6230 H   0  0  0  0  0  0  0  0  0  0  0  0
   -1.9575   -1.5570   -0.2871 H   0  0  0  0  0  0  0  0  0  0  0  0
   -1.9568   -1.5583    1.5310 H   0  0  0  0  0  0  0  0  0  0  0  0
   -1.3439    1.4407    1.8682 H   0  0  0  0  0  0  0  0  0  0  0  0
    0.4656    1.2741    1.8660 H   0  0  0  0  0  0  0  0  0  0  0  0
   -0.5567    0.0762    2.7745 H   0  0  0  0  0  0  0  0  0  0  0  0
    0.4645    1.2761   -0.6205 H   0  0  0  0  0  0  0  0  0  0  0  0
   -0.5582    0.0793   -1.5300 H   0  0  0  0  0  0  0  0  0  0  0  0
   -2.4226    3.3080   -1.8645 H   0  0  0  0  0  0  0  0  0  0  0  0
   -0.6130    3.1417   -1.8638 H   0  0  0  0  0  0  0  0  0  0  0  0
   -1.6357    1.9450   -2.7733 H   0  0  0  0  0  0  0  0  0  0  0  0
   -3.8220    1.6690   -0.6221 H   0  0  0  0  0  0  0  0  0  0  0  0
   -3.0341    0.3070    0.2868 H   0  0  0  0  0  0  0  0  0  0  0  0
   -3.0334    0.3072   -1.5313 H   0  0  0  0  0  0  0  0  0  0  0  0
   -0.6906    2.2878    1.2285 H   0  0  0  0  0  0  0  0  0  0  0  0
   -1.4768    3.6505    0.3190 H   0  0  0  0  0  0  0  0  0  0  0  0
   -2.5004    2.4542    1.2282 H   0  0  0  0  0  0  0  0  0  0  0  0
  1  2  1  0      
  1 15  1  0      
  1 16  1  0      
  1 17  1  0      
  2  3  1  0      
  2 18  1  0      
  2 19  1  0      
  3  4  1  0      
  3  5  1  0      
  3  6  1  0      
  4 20  1  0      
  4 21  1  0      
  4 22  1  0      
  5 23  1  0      
  5 24  1  0      
  5 25  1  0      
  6  7  1  0      
  6 26  1  0      
  6 27  1  0      
  7  8  1  0      
  7  9  1  0      
  7 10  1  0      
  8 28  1  0      
  8 29  1  0      
  8 30  1  0      
  9 31  1  0      
  9 32  1  0      
  9 33  1  0      
 10 11  1  0      
 10 34  1  0      
 10 35  1  0      
 11 12  1  0      
 11 13  1  0      
 11 14  1  0      
 12 36  1  0      
 12 37  1  0      
 12 38  1  0      
 13 39  1  0      
 13 40  1  0      
 13 41  1  0      
 14 42  1  0      
 14 43  1  0      
 14 44  1  0      
M  END
$$$$
