Fragment
  Chem3D Core 21.007272619283D

 26 25  0  0  0  0  0  0  0  0999 V2000
   -2.4957   -2.2493    0.6228 C   0  0  0  0  0  0  0  0  0  0  0  0
   -1.1768   -3.0109    0.6228 C   0  0  0  0  0  0  0  0  0  0  0  0
   -0.0186   -2.0218    0.6228 C   0  0  0  0  0  0  0  0  0  0  0  0
   -0.0913   -1.2211    1.7591 F   0  0  0  0  0  0  0  0  0  0  0  0
    1.1861   -2.7191    0.6236 F   0  0  0  0  0  0  0  0  0  0  0  0
   -0.0990   -1.1463   -0.6208 C   0  0  0  0  0  0  0  0  0  0  0  0
    1.0588   -0.1568   -0.6217 C   0  0  0  0  0  0  0  0  0  0  0  0
    2.2645   -0.8525   -0.6220 F   0  0  0  0  0  0  0  0  0  0  0  0
    0.9846    0.6421   -1.7591 F   0  0  0  0  0  0  0  0  0  0  0  0
    0.9786    0.7191    0.6216 C   0  0  0  0  0  0  0  0  0  0  0  0
    2.1361    1.7090    0.6216 C   0  0  0  0  0  0  0  0  0  0  0  0
    3.3420    1.0137    0.6216 F   0  0  0  0  0  0  0  0  0  0  0  0
    2.0621    2.5084    1.7588 F   0  0  0  0  0  0  0  0  0  0  0  0
    2.0551    2.5844   -0.6220 C   0  0  0  0  0  0  0  0  0  0  0  0
   -3.3420   -2.9721    0.6228 H   0  0  0  0  0  0  0  0  0  0  0  0
   -2.5544   -1.6101    1.5320 H   0  0  0  0  0  0  0  0  0  0  0  0
   -2.5545   -1.6095   -0.2860 H   0  0  0  0  0  0  0  0  0  0  0  0
   -1.1181   -3.6501   -0.2865 H   0  0  0  0  0  0  0  0  0  0  0  0
   -1.1180   -3.6507    1.5316 H   0  0  0  0  0  0  0  0  0  0  0  0
   -0.0397   -1.7867   -1.5292 H   0  0  0  0  0  0  0  0  0  0  0  0
   -1.0627   -0.5894   -0.6206 H   0  0  0  0  0  0  0  0  0  0  0  0
    0.0150    1.2760    0.6209 H   0  0  0  0  0  0  0  0  0  0  0  0
    1.0378    0.0794    1.5304 H   0  0  0  0  0  0  0  0  0  0  0  0
    1.1700    2.2879   -1.2281 H   0  0  0  0  0  0  0  0  0  0  0  0
    1.9560    3.6507   -0.3186 H   0  0  0  0  0  0  0  0  0  0  0  0
    2.9797    2.4545   -1.2278 H   0  0  0  0  0  0  0  0  0  0  0  0
  1  2  1  0      
  1 15  1  0      
  1 16  1  0      
  1 17  1  0      
  2  3  1  0      
  2 18  1  0      
  2 19  1  0      
  3  4  1  0      
  3  5  1  0      
  3  6  1  0      
  6  7  1  0      
  6 20  1  0      
  6 21  1  0      
  7  8  1  0      
  7  9  1  0      
  7 10  1  0      
 10 11  1  0      
 10 22  1  0      
 10 23  1  0      
 11 12  1  0      
 11 13  1  0      
 11 14  1  0      
 14 24  1  0      
 14 25  1  0      
 14 26  1  0      
M  END
$$$$
