Fragment
  Chem3D Core 21.007272619273D

 15 14  0  0  0  0  0  0  0  0999 V2000
   -1.8980   -0.1136   -0.1176 C   0  0  0  0  0  0  0  0  0  0  0  0
   -0.5791   -0.8752   -0.1176 C   0  0  0  0  0  0  0  0  0  0  0  0
    0.5791    0.1138   -0.1176 C   0  0  0  0  0  0  0  0  0  0  0  0
    0.5059    0.9202    1.0269 O   0  0  0  0  0  0  0  0  0  0  0  0
    1.8972   -0.6492   -0.1167 C   0  0  0  0  0  0  0  0  0  0  0  0
   -2.7444   -0.8364   -0.1176 H   0  0  0  0  0  0  0  0  0  0  0  0
   -1.9566    0.5256    0.7916 H   0  0  0  0  0  0  0  0  0  0  0  0
   -1.9567    0.5262   -1.0264 H   0  0  0  0  0  0  0  0  0  0  0  0
   -0.5204   -1.5144   -1.0269 H   0  0  0  0  0  0  0  0  0  0  0  0
   -0.5203   -1.5150    0.7912 H   0  0  0  0  0  0  0  0  0  0  0  0
    0.5204    0.7536   -1.0265 H   0  0  0  0  0  0  0  0  0  0  0  0
    1.2354    1.5150    0.9899 H   0  0  0  0  0  0  0  0  0  0  0  0
    2.7444    0.0727   -0.1167 H   0  0  0  0  0  0  0  0  0  0  0  0
    1.9556   -1.2889   -1.0256 H   0  0  0  0  0  0  0  0  0  0  0  0
    1.9549   -1.2886    0.7924 H   0  0  0  0  0  0  0  0  0  0  0  0
  1  2  1  0      
  1  6  1  0      
  1  7  1  0      
  1  8  1  0      
  2  3  1  0      
  2  9  1  0      
  2 10  1  0      
  3  4  1  0      
  3  5  1  0      
  3 11  1  0      
  4 12  1  0      
  5 13  1  0      
  5 14  1  0      
  5 15  1  0      
M  END
$$$$
