Fragment
  Chem3D Core 21.007272619293D

 92 94  0  0  0  0  0  0  0  0999 V2000
   -1.1104   14.7311   -2.9701 C   0  0  0  0  0  0  0  0  0  0  0  0
   -0.5038   13.5100   -2.6438 O   0  0  0  0  0  0  0  0  0  0  0  0
   -1.5384   12.5954   -2.4016 C   0  0  0  0  0  0  0  0  0  0  0  0
   -0.9448   11.2404   -2.0396 C   0  0  0  0  0  0  0  0  0  0  0  0
   -2.0688   10.2469   -1.7765 C   0  0  0  0  0  0  0  0  0  0  0  0
   -1.4751    8.8919   -1.4145 C   0  0  0  0  0  0  0  0  0  0  0  0
   -2.5098    7.9773   -1.1723 O   0  0  0  0  0  0  0  0  0  0  0  0
   -1.9969    6.7834   -0.8533 C   0  0  0  0  0  0  0  0  0  0  0  0
   -0.7991    6.6323   -0.8113 O   0  0  0  0  0  0  0  0  0  0  0  0
   -2.8186    5.7468   -0.5784 C   0  0  0  0  0  0  0  0  0  0  0  0
   -2.2839    4.5022   -0.2459 C   0  0  0  0  0  0  0  0  0  0  0  0
   -3.1323    3.4320    0.0379 C   0  0  0  0  0  0  0  0  0  0  0  0
   -4.5153    3.6065   -0.0107 C   0  0  0  0  0  0  0  0  0  0  0  0
   -5.0500    4.8511   -0.3431 C   0  0  0  0  0  0  0  0  0  0  0  0
   -4.2016    5.9213   -0.6270 C   0  0  0  0  0  0  0  0  0  0  0  0
   -5.3370    2.5700    0.2643 C   0  0  0  0  0  0  0  0  0  0  0  0
   -6.5348    2.7211    0.2222 O   0  0  0  0  0  0  0  0  0  0  0  0
   -4.8241    1.3760    0.5831 O   0  0  0  0  0  0  0  0  0  0  0  0
   -5.8587    0.4614    0.8252 C   0  0  0  0  0  0  0  0  0  0  0  0
   -5.2651   -0.8936    1.1871 C   0  0  0  0  0  0  0  0  0  0  0  0
   -6.3891   -1.8872    1.4501 C   0  0  0  0  0  0  0  0  0  0  0  0
   -5.7954   -3.2422    1.8120 C   0  0  0  0  0  0  0  0  0  0  0  0
   -6.8301   -4.1568    2.0541 O   0  0  0  0  0  0  0  0  0  0  0  0
   -6.3172   -5.3508    2.3730 C   0  0  0  0  0  0  0  0  0  0  0  0
   -7.0519   -6.2776    2.6188 O   0  0  0  0  0  0  0  0  0  0  0  0
   -4.9776   -5.5198    2.4200 C   0  0  0  0  0  0  0  0  0  0  0  0
   -4.3769   -6.5389    1.6811 C   0  0  0  0  0  0  0  0  0  0  0  0
   -2.9939   -6.7134    1.7298 C   0  0  0  0  0  0  0  0  0  0  0  0
   -2.2116   -5.8687    2.5173 C   0  0  0  0  0  0  0  0  0  0  0  0
   -2.8123   -4.8496    3.2562 C   0  0  0  0  0  0  0  0  0  0  0  0
   -4.1954   -4.6751    3.2076 C   0  0  0  0  0  0  0  0  0  0  0  0
   -0.8721   -6.0378    2.5645 C   0  0  0  0  0  0  0  0  0  0  0  0
   -0.1946   -5.3062    3.2465 O   0  0  0  0  0  0  0  0  0  0  0  0
   -0.2958   -7.0154    1.8557 O   0  0  0  0  0  0  0  0  0  0  0  0
    1.0912   -6.9985    2.0592 C   0  0  0  0  0  0  0  0  0  0  0  0
    1.7376   -8.1142    1.2488 C   0  0  0  0  0  0  0  0  0  0  0  0
    3.2444   -8.0958    1.4699 C   0  0  0  0  0  0  0  0  0  0  0  0
    3.8908   -9.2116    0.6595 C   0  0  0  0  0  0  0  0  0  0  0  0
    5.2779   -9.1946    0.8630 O   0  0  0  0  0  0  0  0  0  0  0  0
    5.8541  -10.1722    0.1542 C   0  0  0  0  0  0  0  0  0  0  0  0
    7.0519  -10.3234    0.1964 O   0  0  0  0  0  0  0  0  0  0  0  0
    5.0965  -10.9904   -0.6085 C   0  0  0  0  0  0  0  0  0  0  0  0
    5.1356  -12.3695   -0.4034 C   0  0  0  0  0  0  0  0  0  0  0  0
    4.3534  -13.2141   -1.1910 C   0  0  0  0  0  0  0  0  0  0  0  0
    3.5321  -12.6797   -2.1836 C   0  0  0  0  0  0  0  0  0  0  0  0
    3.4929  -11.3006   -2.3887 C   0  0  0  0  0  0  0  0  0  0  0  0
    4.2751  -10.4559   -1.6011 C   0  0  0  0  0  0  0  0  0  0  0  0
    2.7745  -13.4978   -2.9464 C   0  0  0  0  0  0  0  0  0  0  0  0
    2.0631  -13.0349   -3.8061 O   0  0  0  0  0  0  0  0  0  0  0  0
    2.8168  -14.9898   -2.7246 C   0  0  0  0  0  0  0  0  0  0  0  0
   -0.3254   15.4937   -3.1722 H   0  0  0  0  0  0  0  0  0  0  0  0
   -1.7420   14.6002   -3.8772 H   0  0  0  0  0  0  0  0  0  0  0  0
   -1.7453   15.0685   -2.1205 H   0  0  0  0  0  0  0  0  0  0  0  0
   -2.1669   12.9616   -1.5591 H   0  0  0  0  0  0  0  0  0  0  0  0
   -2.1648   12.4935   -3.3159 H   0  0  0  0  0  0  0  0  0  0  0  0
   -0.3164   10.8742   -2.8820 H   0  0  0  0  0  0  0  0  0  0  0  0
   -0.3184   11.3423   -1.1252 H   0  0  0  0  0  0  0  0  0  0  0  0
   -2.6972   10.6130   -0.9340 H   0  0  0  0  0  0  0  0  0  0  0  0
   -2.6952   10.1450   -2.6908 H   0  0  0  0  0  0  0  0  0  0  0  0
   -0.8467    8.5257   -2.2569 H   0  0  0  0  0  0  0  0  0  0  0  0
   -0.8487    8.9938   -0.5002 H   0  0  0  0  0  0  0  0  0  0  0  0
   -1.1932    4.3646   -0.2074 H   0  0  0  0  0  0  0  0  0  0  0  0
   -2.7107    2.4504    0.3001 H   0  0  0  0  0  0  0  0  0  0  0  0
   -6.1407    4.9887   -0.3813 H   0  0  0  0  0  0  0  0  0  0  0  0
   -4.6232    6.9029   -0.8892 H   0  0  0  0  0  0  0  0  0  0  0  0
   -6.4872    0.8275    1.6677 H   0  0  0  0  0  0  0  0  0  0  0  0
   -6.4851    0.3596   -0.0891 H   0  0  0  0  0  0  0  0  0  0  0  0
   -4.6367   -1.2597    0.3446 H   0  0  0  0  0  0  0  0  0  0  0  0
   -4.6387   -0.7918    2.1015 H   0  0  0  0  0  0  0  0  0  0  0  0
   -7.0175   -1.5211    2.2926 H   0  0  0  0  0  0  0  0  0  0  0  0
   -7.0155   -1.9890    0.5358 H   0  0  0  0  0  0  0  0  0  0  0  0
   -5.1670   -3.6083    0.9695 H   0  0  0  0  0  0  0  0  0  0  0  0
   -5.1690   -3.1404    2.7264 H   0  0  0  0  0  0  0  0  0  0  0  0
   -4.9938   -7.2050    1.0600 H   0  0  0  0  0  0  0  0  0  0  0  0
   -2.5201   -7.5172    1.1472 H   0  0  0  0  0  0  0  0  0  0  0  0
   -2.1954   -4.1834    3.8772 H   0  0  0  0  0  0  0  0  0  0  0  0
   -4.6692   -3.8714    3.7903 H   0  0  0  0  0  0  0  0  0  0  0  0
    1.5017   -6.0171    1.7317 H   0  0  0  0  0  0  0  0  0  0  0  0
    1.3094   -7.1508    3.1400 H   0  0  0  0  0  0  0  0  0  0  0  0
    1.3272   -9.0956    1.5763 H   0  0  0  0  0  0  0  0  0  0  0  0
    1.5195   -7.9618    0.1681 H   0  0  0  0  0  0  0  0  0  0  0  0
    3.6549   -7.1144    1.1424 H   0  0  0  0  0  0  0  0  0  0  0  0
    3.4625   -8.2482    2.5506 H   0  0  0  0  0  0  0  0  0  0  0  0
    3.4803  -10.1929    0.9870 H   0  0  0  0  0  0  0  0  0  0  0  0
    3.6727   -9.0592   -0.4212 H   0  0  0  0  0  0  0  0  0  0  0  0
    5.7833  -12.7909    0.3795 H   0  0  0  0  0  0  0  0  0  0  0  0
    4.3843  -14.3017   -1.0293 H   0  0  0  0  0  0  0  0  0  0  0  0
    2.8451  -10.8791   -3.1715 H   0  0  0  0  0  0  0  0  0  0  0  0
    4.2443   -9.3683   -1.7629 H   0  0  0  0  0  0  0  0  0  0  0  0
    3.5236  -15.2224   -1.8969 H   0  0  0  0  0  0  0  0  0  0  0  0
    1.7997  -15.3535   -2.4564 H   0  0  0  0  0  0  0  0  0  0  0  0
    3.1583  -15.4937   -3.6564 H   0  0  0  0  0  0  0  0  0  0  0  0
  1  2  1  0      
  1 51  1  0      
  1 52  1  0      
  1 53  1  0      
  2  3  1  0      
  3  4  1  0      
  3 54  1  0      
  3 55  1  0      
  4  5  1  0      
  4 56  1  0      
  4 57  1  0      
  5  6  1  0      
  5 58  1  0      
  5 59  1  0      
  6  7  1  0      
  6 60  1  0      
  6 61  1  0      
  7  8  1  0      
  8  9  2  0      
  8 10  1  0      
 10 11  1  0      
 10 15  2  0      
 11 12  2  0      
 11 62  1  0      
 12 13  1  0      
 12 63  1  0      
 13 14  2  0      
 13 16  1  0      
 14 15  1  0      
 14 64  1  0      
 15 65  1  0      
 16 17  2  0      
 16 18  1  0      
 18 19  1  0      
 19 20  1  0      
 19 66  1  0      
 19 67  1  0      
 20 21  1  0      
 20 68  1  0      
 20 69  1  0      
 21 22  1  0      
 21 70  1  0      
 21 71  1  0      
 22 23  1  0      
 22 72  1  0      
 22 73  1  0      
 23 24  1  0      
 24 25  2  0      
 24 26  1  0      
 26 27  1  0      
 26 31  2  0      
 27 28  2  0      
 27 74  1  0      
 28 29  1  0      
 28 75  1  0      
 29 30  2  0      
 29 32  1  0      
 30 31  1  0      
 30 76  1  0      
 31 77  1  0      
 32 33  2  0      
 32 34  1  0      
 34 35  1  0      
 35 36  1  0      
 35 78  1  0      
 35 79  1  0      
 36 37  1  0      
 36 80  1  0      
 36 81  1  0      
 37 38  1  0      
 37 82  1  0      
 37 83  1  0      
 38 39  1  0      
 38 84  1  0      
 38 85  1  0      
 39 40  1  0      
 40 41  2  0      
 40 42  1  0      
 42 43  1  0      
 42 47  2  0      
 43 44  2  0      
 43 86  1  0      
 44 45  1  0      
 44 87  1  0      
 45 46  2  0      
 45 48  1  0      
 46 47  1  0      
 46 88  1  0      
 47 89  1  0      
 48 49  2  0      
 48 50  1  0      
 50 90  1  0      
 50 91  1  0      
 50 92  1  0      
M  END
$$$$
