Fragment
  Chem3D Core 21.007272619293D

 62 61  0  0  0  0  0  0  0  0999 V2000
   -6.6117   -7.0184   -0.0000 C   0  0  0  0  0  0  0  0  0  0  0  0
   -5.3975   -6.3176   -0.0000 O   0  0  0  0  0  0  0  0  0  0  0  0
   -4.3756   -7.2774   -0.0000 C   0  0  0  0  0  0  0  0  0  0  0  0
   -3.0221   -6.5791   -0.0000 C   0  0  0  0  0  0  0  0  0  0  0  0
   -1.9120   -7.6218   -0.0000 C   0  0  0  0  0  0  0  0  0  0  0  0
   -0.5586   -6.9234   -0.0000 C   0  0  0  0  0  0  0  0  0  0  0  0
    0.5515   -7.9661   -0.0000 C   0  0  0  0  0  0  0  0  0  0  0  0
    1.8925   -7.2742   -0.0000 C   0  0  0  0  0  0  0  0  0  0  0  0
    2.9090   -7.9269   -0.0000 O   0  0  0  0  0  0  0  0  0  0  0  0
    1.9557   -5.9377   -0.0000 O   0  0  0  0  0  0  0  0  0  0  0  0
    3.2951   -5.5233   -0.0000 C   0  0  0  0  0  0  0  0  0  0  0  0
    3.3564   -4.0015   -0.0000 C   0  0  0  0  0  0  0  0  0  0  0  0
    4.8113   -3.5513   -0.0000 C   0  0  0  0  0  0  0  0  0  0  0  0
    4.8726   -2.0296   -0.0000 C   0  0  0  0  0  0  0  0  0  0  0  0
    6.3276   -1.5794   -0.0000 C   0  0  0  0  0  0  0  0  0  0  0  0
    6.3883   -0.0716   -0.0000 C   0  0  0  0  0  0  0  0  0  0  0  0
    7.4580    0.4898   -0.0000 O   0  0  0  0  0  0  0  0  0  0  0  0
    5.2575    0.6435   -0.0000 O   0  0  0  0  0  0  0  0  0  0  0  0
    5.5587    2.0128   -0.0000 C   0  0  0  0  0  0  0  0  0  0  0  0
    4.2658    2.8177   -0.0000 C   0  0  0  0  0  0  0  0  0  0  0  0
    4.5930    4.3052   -0.0000 C   0  0  0  0  0  0  0  0  0  0  0  0
    3.3001    5.1101   -0.0000 C   0  0  0  0  0  0  0  0  0  0  0  0
    3.6274    6.5976   -0.0000 C   0  0  0  0  0  0  0  0  0  0  0  0
    2.3464    7.3951   -0.0000 C   0  0  0  0  0  0  0  0  0  0  0  0
    2.3866    8.6025   -0.0000 O   0  0  0  0  0  0  0  0  0  0  0  0
    1.0152    6.6845   -0.0000 C   0  0  0  0  0  0  0  0  0  0  0  0
   -7.4580   -6.2955   -0.0000 H   0  0  0  0  0  0  0  0  0  0  0  0
   -6.6705   -7.6576   -0.9093 H   0  0  0  0  0  0  0  0  0  0  0  0
   -6.6706   -7.6582    0.9088 H   0  0  0  0  0  0  0  0  0  0  0  0
   -4.4644   -7.9131    0.9093 H   0  0  0  0  0  0  0  0  0  0  0  0
   -4.4645   -7.9138   -0.9088 H   0  0  0  0  0  0  0  0  0  0  0  0
   -2.9333   -5.9434   -0.9093 H   0  0  0  0  0  0  0  0  0  0  0  0
   -2.9332   -5.9427    0.9088 H   0  0  0  0  0  0  0  0  0  0  0  0
   -2.0009   -8.2575    0.9093 H   0  0  0  0  0  0  0  0  0  0  0  0
   -2.0010   -8.2581   -0.9088 H   0  0  0  0  0  0  0  0  0  0  0  0
   -0.4697   -6.2877   -0.9093 H   0  0  0  0  0  0  0  0  0  0  0  0
   -0.4696   -6.2871    0.9088 H   0  0  0  0  0  0  0  0  0  0  0  0
    0.4627   -8.6018    0.9093 H   0  0  0  0  0  0  0  0  0  0  0  0
    0.4626   -8.6025   -0.9088 H   0  0  0  0  0  0  0  0  0  0  0  0
    3.8039   -5.9145    0.9093 H   0  0  0  0  0  0  0  0  0  0  0  0
    3.8044   -5.9149   -0.9088 H   0  0  0  0  0  0  0  0  0  0  0  0
    2.8475   -3.6102   -0.9093 H   0  0  0  0  0  0  0  0  0  0  0  0
    2.8470   -3.6099    0.9088 H   0  0  0  0  0  0  0  0  0  0  0  0
    5.3202   -3.9426    0.9093 H   0  0  0  0  0  0  0  0  0  0  0  0
    5.3207   -3.9430   -0.9088 H   0  0  0  0  0  0  0  0  0  0  0  0
    4.3638   -1.6383   -0.9093 H   0  0  0  0  0  0  0  0  0  0  0  0
    4.3633   -1.6379    0.9088 H   0  0  0  0  0  0  0  0  0  0  0  0
    6.8364   -1.9706    0.9093 H   0  0  0  0  0  0  0  0  0  0  0  0
    6.8369   -1.9710   -0.9088 H   0  0  0  0  0  0  0  0  0  0  0  0
    6.1502    2.2619    0.9093 H   0  0  0  0  0  0  0  0  0  0  0  0
    6.1508    2.2622   -0.9088 H   0  0  0  0  0  0  0  0  0  0  0  0
    3.6743    2.5685   -0.9093 H   0  0  0  0  0  0  0  0  0  0  0  0
    3.6737    2.5683    0.9088 H   0  0  0  0  0  0  0  0  0  0  0  0
    5.1846    4.5543    0.9093 H   0  0  0  0  0  0  0  0  0  0  0  0
    5.1852    4.5546   -0.9088 H   0  0  0  0  0  0  0  0  0  0  0  0
    2.7086    4.8610   -0.9093 H   0  0  0  0  0  0  0  0  0  0  0  0
    2.7080    4.8607    0.9088 H   0  0  0  0  0  0  0  0  0  0  0  0
    4.2189    6.8467    0.9093 H   0  0  0  0  0  0  0  0  0  0  0  0
    4.2195    6.8470   -0.9088 H   0  0  0  0  0  0  0  0  0  0  0  0
    1.1815    5.5840   -0.0000 H   0  0  0  0  0  0  0  0  0  0  0  0
    0.4415    6.9725    0.9093 H   0  0  0  0  0  0  0  0  0  0  0  0
    0.4409    6.9728   -0.9088 H   0  0  0  0  0  0  0  0  0  0  0  0
  1  2  1  0      
  1 27  1  0      
  1 28  1  0      
  1 29  1  0      
  2  3  1  0      
  3  4  1  0      
  3 30  1  0      
  3 31  1  0      
  4  5  1  0      
  4 32  1  0      
  4 33  1  0      
  5  6  1  0      
  5 34  1  0      
  5 35  1  0      
  6  7  1  0      
  6 36  1  0      
  6 37  1  0      
  7  8  1  0      
  7 38  1  0      
  7 39  1  0      
  8  9  2  0      
  8 10  1  0      
 10 11  1  0      
 11 12  1  0      
 11 40  1  0      
 11 41  1  0      
 12 13  1  0      
 12 42  1  0      
 12 43  1  0      
 13 14  1  0      
 13 44  1  0      
 13 45  1  0      
 14 15  1  0      
 14 46  1  0      
 14 47  1  0      
 15 16  1  0      
 15 48  1  0      
 15 49  1  0      
 16 17  2  0      
 16 18  1  0      
 18 19  1  0      
 19 20  1  0      
 19 50  1  0      
 19 51  1  0      
 20 21  1  0      
 20 52  1  0      
 20 53  1  0      
 21 22  1  0      
 21 54  1  0      
 21 55  1  0      
 22 23  1  0      
 22 56  1  0      
 22 57  1  0      
 23 24  1  0      
 23 58  1  0      
 23 59  1  0      
 24 25  2  0      
 24 26  1  0      
 26 60  1  0      
 26 61  1  0      
 26 62  1  0      
M  END
$$$$
