Fragment
  Chem3D Core 21.007272619303D

 20 19  0  0  0  0  0  0  0  0999 V2000
    1.8082    3.6063   -0.0000 C   0  0  0  0  0  0  0  0  0  0  0  0
    0.5940    2.9054   -0.0000 O   0  0  0  0  0  0  0  0  0  0  0  0
    0.9141    1.5404   -0.0000 C   0  0  0  0  0  0  0  0  0  0  0  0
   -0.2658    0.7831   -0.0000 O   0  0  0  0  0  0  0  0  0  0  0  0
    0.1182   -0.5653   -0.0000 C   0  0  0  0  0  0  0  0  0  0  0  0
   -1.0247   -1.3774   -0.0000 O   0  0  0  0  0  0  0  0  0  0  0  0
   -0.5776   -2.7062   -0.0000 C   0  0  0  0  0  0  0  0  0  0  0  0
   -1.7761   -3.6458   -0.0000 C   0  0  0  0  0  0  0  0  0  0  0  0
    1.6054    4.7007   -0.0000 H   0  0  0  0  0  0  0  0  0  0  0  0
    2.3911    3.3376    0.9093 H   0  0  0  0  0  0  0  0  0  0  0  0
    2.3917    3.3373   -0.9088 H   0  0  0  0  0  0  0  0  0  0  0  0
    1.5090    1.2994   -0.9093 H   0  0  0  0  0  0  0  0  0  0  0  0
    1.5096    1.2992    0.9088 H   0  0  0  0  0  0  0  0  0  0  0  0
    0.7238   -0.7780   -0.9093 H   0  0  0  0  0  0  0  0  0  0  0  0
    0.7244   -0.7782    0.9088 H   0  0  0  0  0  0  0  0  0  0  0  0
    0.0374   -2.8901   -0.9093 H   0  0  0  0  0  0  0  0  0  0  0  0
    0.0380   -2.8903    0.9088 H   0  0  0  0  0  0  0  0  0  0  0  0
   -1.4212   -4.7007   -0.0000 H   0  0  0  0  0  0  0  0  0  0  0  0
   -2.3911   -3.4619    0.9093 H   0  0  0  0  0  0  0  0  0  0  0  0
   -2.3917   -3.4617   -0.9088 H   0  0  0  0  0  0  0  0  0  0  0  0
  1  2  1  0      
  1  9  1  0      
  1 10  1  0      
  1 11  1  0      
  2  3  1  0      
  3  4  1  0      
  3 12  1  0      
  3 13  1  0      
  4  5  1  0      
  5  6  1  0      
  5 14  1  0      
  5 15  1  0      
  6  7  1  0      
  7  8  1  0      
  7 16  1  0      
  7 17  1  0      
  8 18  1  0      
  8 19  1  0      
  8 20  1  0      
M  END
$$$$
