Fragment
  Chem3D Core 21.007272619273D

 29 28  0  0  0  0  0  0  0  0999 V2000
   -3.6569    0.7926    1.6131 C   0  0  0  0  0  0  0  0  0  0  0  0
   -2.3380    0.0309    1.6131 C   0  0  0  0  0  0  0  0  0  0  0  0
   -1.1798    1.0198    1.6131 C   0  0  0  0  0  0  0  0  0  0  0  0
   -1.2529    1.8263    2.7577 O   0  0  0  0  0  0  0  0  0  0  0  0
    0.1383    0.2568    1.6141 C   0  0  0  0  0  0  0  0  0  0  0  0
    0.9384    0.6227    0.3709 C   0  0  0  0  0  0  0  0  0  0  0  0
    1.1969    2.0007    0.3695 O   0  0  0  0  0  0  0  0  0  0  0  0
    2.2565   -0.1403    0.3736 C   0  0  0  0  0  0  0  0  0  0  0  0
    2.3385   -1.0178   -0.8685 C   0  0  0  0  0  0  0  0  0  0  0  0
    2.2670   -0.2139   -2.0149 O   0  0  0  0  0  0  0  0  0  0  0  0
    3.6574   -1.7794   -0.8649 C   0  0  0  0  0  0  0  0  0  0  0  0
   -4.5033    0.0699    1.6131 H   0  0  0  0  0  0  0  0  0  0  0  0
   -3.7155    1.4318    2.5224 H   0  0  0  0  0  0  0  0  0  0  0  0
   -3.7156    1.4324    0.7043 H   0  0  0  0  0  0  0  0  0  0  0  0
   -2.2794   -0.6083    0.7039 H   0  0  0  0  0  0  0  0  0  0  0  0
   -2.2793   -0.6089    2.5220 H   0  0  0  0  0  0  0  0  0  0  0  0
   -1.2385    1.6597    0.7043 H   0  0  0  0  0  0  0  0  0  0  0  0
   -0.5234    2.4211    2.7207 H   0  0  0  0  0  0  0  0  0  0  0  0
    0.7217    0.5263    2.5228 H   0  0  0  0  0  0  0  0  0  0  0  0
   -0.0665   -0.8372    1.6145 H   0  0  0  0  0  0  0  0  0  0  0  0
    0.3550    0.3540   -0.5380 H   0  0  0  0  0  0  0  0  0  0  0  0
    1.6909    2.1859   -0.4109 H   0  0  0  0  0  0  0  0  0  0  0  0
    3.1029    0.5824    0.3732 H   0  0  0  0  0  0  0  0  0  0  0  0
    2.3133   -0.7790    1.2833 H   0  0  0  0  0  0  0  0  0  0  0  0
    1.4918   -1.7402   -0.8687 H   0  0  0  0  0  0  0  0  0  0  0  0
    2.3208   -0.7908   -2.7577 H   0  0  0  0  0  0  0  0  0  0  0  0
    3.7183   -2.4211   -1.7723 H   0  0  0  0  0  0  0  0  0  0  0  0
    3.7139   -2.4181    0.0449 H   0  0  0  0  0  0  0  0  0  0  0  0
    4.5033   -1.0561   -0.8647 H   0  0  0  0  0  0  0  0  0  0  0  0
  1  2  1  0      
  1 12  1  0      
  1 13  1  0      
  1 14  1  0      
  2  3  1  0      
  2 15  1  0      
  2 16  1  0      
  3  4  1  0      
  3  5  1  0      
  3 17  1  0      
  4 18  1  0      
  5  6  1  0      
  5 19  1  0      
  5 20  1  0      
  6  7  1  0      
  6  8  1  0      
  6 21  1  0      
  7 22  1  0      
  8  9  1  0      
  8 23  1  0      
  8 24  1  0      
  9 10  1  0      
  9 11  1  0      
  9 25  1  0      
 10 26  1  0      
 11 27  1  0      
 11 28  1  0      
 11 29  1  0      
M  END
$$$$
