Fragment
  Chem3D Core 21.007272619323D

 44 48  0  0  0  0  0  0  0  0999 V2000
   -7.6794    2.3184    1.7499 C   0  0  0  0  0  0  0  0  0  0  0  0
   -6.2397    2.0152    1.4736 C   0  0  0  0  0  0  0  0  0  0  0  0
   -5.2441    2.7990    2.0629 C   0  0  0  0  0  0  0  0  0  0  0  0
   -3.8863    2.5485    1.8302 C   0  0  0  0  0  0  0  0  0  0  0  0
   -3.5836    1.4804    0.9831 C   0  0  0  0  0  0  0  0  0  0  0  0
   -2.3959    0.9567    0.5402 N   0  0  0  0  0  0  0  0  0  0  0  0
   -2.6795   -0.0981   -0.2808 C   0  0  0  0  0  0  0  0  0  0  0  0
   -3.9734   -0.2896   -0.3969 N   0  0  0  0  0  0  0  0  0  0  0  0
   -4.5526    0.6828    0.3823 C   0  0  0  0  0  0  0  0  0  0  0  0
   -5.9072    0.9493    0.6275 C   0  0  0  0  0  0  0  0  0  0  0  0
   -1.7529   -0.8440   -0.8912 C   0  0  0  0  0  0  0  0  0  0  0  0
   -2.1344   -1.9664   -1.6261 C   0  0  0  0  0  0  0  0  0  0  0  0
   -1.1676   -2.7447   -2.2628 C   0  0  0  0  0  0  0  0  0  0  0  0
    0.1804   -2.4003   -2.1648 C   0  0  0  0  0  0  0  0  0  0  0  0
    0.5619   -1.2777   -1.4301 C   0  0  0  0  0  0  0  0  0  0  0  0
   -0.4048   -0.4996   -0.7932 C   0  0  0  0  0  0  0  0  0  0  0  0
    1.8541   -0.9476   -1.3362 C   0  0  0  0  0  0  0  0  0  0  0  0
    2.8295   -1.6208   -1.9016 N   0  0  0  0  0  0  0  0  0  0  0  0
    3.9776   -0.9489   -1.5570 C   0  0  0  0  0  0  0  0  0  0  0  0
    5.3127   -1.2241   -1.8851 C   0  0  0  0  0  0  0  0  0  0  0  0
    6.3131   -0.3714   -1.4006 C   0  0  0  0  0  0  0  0  0  0  0  0
    5.9904    0.7320   -0.6062 C   0  0  0  0  0  0  0  0  0  0  0  0
    4.6633    1.0233   -0.2679 C   0  0  0  0  0  0  0  0  0  0  0  0
    3.6868    0.1570   -0.7642 C   0  0  0  0  0  0  0  0  0  0  0  0
    2.3212    0.1315   -0.6403 N   0  0  0  0  0  0  0  0  0  0  0  0
    7.7455   -0.6457   -1.7381 C   0  0  0  0  0  0  0  0  0  0  0  0
   -8.3233    1.5962    1.1997 H   0  0  0  0  0  0  0  0  0  0  0  0
   -7.8736    2.2302    2.8423 H   0  0  0  0  0  0  0  0  0  0  0  0
   -7.9117    3.3535    1.4133 H   0  0  0  0  0  0  0  0  0  0  0  0
   -5.5331    3.6300    2.7232 H   0  0  0  0  0  0  0  0  0  0  0  0
   -3.0981    3.1619    2.2912 H   0  0  0  0  0  0  0  0  0  0  0  0
   -1.4370    1.3052    0.7885 H   0  0  0  0  0  0  0  0  0  0  0  0
   -6.6929    0.3339    0.1649 H   0  0  0  0  0  0  0  0  0  0  0  0
   -3.1975   -2.2380   -1.7034 H   0  0  0  0  0  0  0  0  0  0  0  0
   -1.4684   -3.6300   -2.8423 H   0  0  0  0  0  0  0  0  0  0  0  0
    0.9428   -3.0140   -2.6670 H   0  0  0  0  0  0  0  0  0  0  0  0
   -0.1041    0.3857   -0.2137 H   0  0  0  0  0  0  0  0  0  0  0  0
    5.5695   -2.0920   -2.5103 H   0  0  0  0  0  0  0  0  0  0  0  0
    6.7956    1.3853   -0.2390 H   0  0  0  0  0  0  0  0  0  0  0  0
    4.4030    1.8903    0.3570 H   0  0  0  0  0  0  0  0  0  0  0  0
    1.7371    0.8204   -0.1046 H   0  0  0  0  0  0  0  0  0  0  0  0
    7.8096   -1.5573   -2.3735 H   0  0  0  0  0  0  0  0  0  0  0  0
    8.1684    0.2223   -2.2918 H   0  0  0  0  0  0  0  0  0  0  0  0
    8.3233   -0.8059   -0.8004 H   0  0  0  0  0  0  0  0  0  0  0  0
  1  2  1  0      
  1 27  1  0      
  1 28  1  0      
  1 29  1  0      
  2  3  2  0      
 10  2  1  0      
  3  4  1  0      
  3 30  1  0      
  4  5  2  0      
  4 31  1  0      
  6  5  1  0      
  9  5  1  0      
  6  7  1  0      
  6 32  1  0      
  7  8  2  0      
  7 11  1  0      
  8  9  1  0      
  9 10  2  0      
 10 33  1  0      
 11 12  1  0      
 11 16  2  0      
 12 13  2  0      
 12 34  1  0      
 13 14  1  0      
 13 35  1  0      
 14 15  2  0      
 14 36  1  0      
 15 16  1  0      
 15 17  1  0      
 16 37  1  0      
 17 18  2  0      
 25 17  1  0      
 18 19  1  0      
 19 20  2  0      
 19 24  1  0      
 20 21  1  0      
 20 38  1  0      
 21 22  2  0      
 21 26  1  0      
 22 23  1  0      
 22 39  1  0      
 23 24  2  0      
 23 40  1  0      
 25 24  1  0      
 25 41  1  0      
 26 42  1  0      
 26 43  1  0      
 26 44  1  0      
M  END
$$$$
