Fragment
  Chem3D Core 21.007272619283D

 47 46  0  0  0  0  0  0  0  0999 V2000
    4.9452   -4.3283   -0.0000 C   0  0  0  0  0  0  0  0  0  0  0  0
    3.6263   -5.0899   -0.0000 C   0  0  0  0  0  0  0  0  0  0  0  0
    2.4879   -4.1178   -0.0000 C   0  0  0  0  0  0  0  0  0  0  0  0
    1.0768   -4.6176   -0.0000 C   0  0  0  0  0  0  0  0  0  0  0  0
    2.7314   -2.8032   -0.0000 C   0  0  0  0  0  0  0  0  0  0  0  0
    1.5930   -1.8310   -0.0000 C   0  0  0  0  0  0  0  0  0  0  0  0
    2.1387   -0.4091   -0.0000 C   0  0  0  0  0  0  0  0  0  0  0  0
    1.0003    0.5630   -0.0000 C   0  0  0  0  0  0  0  0  0  0  0  0
    1.2729    2.0349   -0.0000 C   0  0  0  0  0  0  0  0  0  0  0  0
   -0.2600    0.1166   -0.0000 C   0  0  0  0  0  0  0  0  0  0  0  0
   -1.3984    1.0887   -0.0000 C   0  0  0  0  0  0  0  0  0  0  0  0
   -2.7173    0.3271   -0.0000 C   0  0  0  0  0  0  0  0  0  0  0  0
   -3.8557    1.2992   -0.0000 C   0  0  0  0  0  0  0  0  0  0  0  0
   -5.2668    0.7994   -0.0000 C   0  0  0  0  0  0  0  0  0  0  0  0
   -3.6122    2.6138   -0.0000 C   0  0  0  0  0  0  0  0  0  0  0  0
   -4.7506    3.5860   -0.0000 C   0  0  0  0  0  0  0  0  0  0  0  0
   -4.2049    5.0079   -0.0000 C   0  0  0  0  0  0  0  0  0  0  0  0
    5.7916   -5.0511   -0.0000 H   0  0  0  0  0  0  0  0  0  0  0  0
    5.0039   -3.6891   -0.9093 H   0  0  0  0  0  0  0  0  0  0  0  0
    5.0039   -3.6885    0.9088 H   0  0  0  0  0  0  0  0  0  0  0  0
    3.5676   -5.7291    0.9093 H   0  0  0  0  0  0  0  0  0  0  0  0
    3.5675   -5.7297   -0.9088 H   0  0  0  0  0  0  0  0  0  0  0  0
    1.0769   -5.7306   -0.0000 H   0  0  0  0  0  0  0  0  0  0  0  0
    0.5526   -4.2472    0.9093 H   0  0  0  0  0  0  0  0  0  0  0  0
    0.5520   -4.2468   -0.9088 H   0  0  0  0  0  0  0  0  0  0  0  0
    3.7683   -2.4359   -0.0000 H   0  0  0  0  0  0  0  0  0  0  0  0
    0.9709   -1.9891   -0.9093 H   0  0  0  0  0  0  0  0  0  0  0  0
    0.9703   -1.9892    0.9088 H   0  0  0  0  0  0  0  0  0  0  0  0
    2.7608   -0.2511    0.9093 H   0  0  0  0  0  0  0  0  0  0  0  0
    2.7614   -0.2509   -0.9088 H   0  0  0  0  0  0  0  0  0  0  0  0
    2.3722    2.2092   -0.0000 H   0  0  0  0  0  0  0  0  0  0  0  0
    0.8250    2.4947   -0.9093 H   0  0  0  0  0  0  0  0  0  0  0  0
    0.8245    2.4951    0.9088 H   0  0  0  0  0  0  0  0  0  0  0  0
   -0.4604   -0.9650   -0.0000 H   0  0  0  0  0  0  0  0  0  0  0  0
   -1.3398    1.7279    0.9093 H   0  0  0  0  0  0  0  0  0  0  0  0
   -1.3397    1.7285   -0.9088 H   0  0  0  0  0  0  0  0  0  0  0  0
   -2.7760   -0.3121   -0.9093 H   0  0  0  0  0  0  0  0  0  0  0  0
   -2.7761   -0.3127    0.9088 H   0  0  0  0  0  0  0  0  0  0  0  0
   -5.2667   -0.3136   -0.0000 H   0  0  0  0  0  0  0  0  0  0  0  0
   -5.7911    1.1698    0.9093 H   0  0  0  0  0  0  0  0  0  0  0  0
   -5.7916    1.1702   -0.9088 H   0  0  0  0  0  0  0  0  0  0  0  0
   -2.5753    2.9811   -0.0000 H   0  0  0  0  0  0  0  0  0  0  0  0
   -5.3727    3.4279   -0.9093 H   0  0  0  0  0  0  0  0  0  0  0  0
   -5.3734    3.4278    0.9088 H   0  0  0  0  0  0  0  0  0  0  0  0
   -5.0513    5.7306   -0.0000 H   0  0  0  0  0  0  0  0  0  0  0  0
   -3.5828    5.1659    0.9093 H   0  0  0  0  0  0  0  0  0  0  0  0
   -3.5822    5.1661   -0.9088 H   0  0  0  0  0  0  0  0  0  0  0  0
  1  2  1  0      
  1 18  1  0      
  1 19  1  0      
  1 20  1  0      
  2  3  1  0      
  2 21  1  0      
  2 22  1  0      
  3  4  1  0      
  3  5  2  0      
  4 23  1  0      
  4 24  1  0      
  4 25  1  0      
  5  6  1  0      
  5 26  1  0      
  6  7  1  0      
  6 27  1  0      
  6 28  1  0      
  7  8  1  0      
  7 29  1  0      
  7 30  1  0      
  8  9  1  0      
  8 10  2  0      
  9 31  1  0      
  9 32  1  0      
  9 33  1  0      
 10 11  1  0      
 10 34  1  0      
 11 12  1  0      
 11 35  1  0      
 11 36  1  0      
 12 13  1  0      
 12 37  1  0      
 12 38  1  0      
 13 14  1  0      
 13 15  2  0      
 14 39  1  0      
 14 40  1  0      
 14 41  1  0      
 15 16  1  0      
 15 42  1  0      
 16 17  1  0      
 16 43  1  0      
 16 44  1  0      
 17 45  1  0      
 17 46  1  0      
 17 47  1  0      
M  END
$$$$
