Fragment
  Chem3D Core 21.007272619283D

 23 22  0  0  0  0  0  0  0  0999 V2000
   -2.4051   -1.5629   -0.1512 C   0  0  0  0  0  0  0  0  0  0  0  0
   -1.0861   -0.8014   -0.1512 C   0  0  0  0  0  0  0  0  0  0  0  0
   -1.3637    0.6961   -0.1512 C   0  0  0  0  0  0  0  0  0  0  0  0
   -2.1621    1.0652    1.0921 C   0  0  0  0  0  0  0  0  0  0  0  0
   -0.0560    1.4492   -0.1503 C   0  0  0  0  0  0  0  0  0  0  0  0
   -0.0548    2.6572   -0.1502 O   0  0  0  0  0  0  0  0  0  0  0  0
    1.1020    0.7790   -0.1497 O   0  0  0  0  0  0  0  0  0  0  0  0
    2.1754    1.6810   -0.1489 C   0  0  0  0  0  0  0  0  0  0  0  0
   -2.1621    1.0642   -1.3948 C   0  0  0  0  0  0  0  0  0  0  0  0
   -2.2023   -2.6572   -0.1512 H   0  0  0  0  0  0  0  0  0  0  0  0
   -2.9880   -1.2941    0.7580 H   0  0  0  0  0  0  0  0  0  0  0  0
   -2.9886   -1.2939   -1.0600 H   0  0  0  0  0  0  0  0  0  0  0  0
   -0.5032   -1.0701   -1.0605 H   0  0  0  0  0  0  0  0  0  0  0  0
   -0.5026   -1.0704    0.7576 H   0  0  0  0  0  0  0  0  0  0  0  0
   -2.3649    2.1595    1.0921 H   0  0  0  0  0  0  0  0  0  0  0  0
   -3.1266    0.5097    1.0914 H   0  0  0  0  0  0  0  0  0  0  0  0
   -1.5786    0.7962    2.0009 H   0  0  0  0  0  0  0  0  0  0  0  0
    3.1348    1.1168   -0.1484 H   0  0  0  0  0  0  0  0  0  0  0  0
    2.1223    2.3208   -1.0581 H   0  0  0  0  0  0  0  0  0  0  0  0
    2.1211    2.3212    0.7600 H   0  0  0  0  0  0  0  0  0  0  0  0
   -2.3485    0.1495   -2.0009 H   0  0  0  0  0  0  0  0  0  0  0  0
   -3.1348    1.5121   -1.0914 H   0  0  0  0  0  0  0  0  0  0  0  0
   -1.5868    1.7996   -2.0006 H   0  0  0  0  0  0  0  0  0  0  0  0
  1  2  1  0      
  1 10  1  0      
  1 11  1  0      
  1 12  1  0      
  2  3  1  0      
  2 13  1  0      
  2 14  1  0      
  3  4  1  0      
  3  5  1  0      
  3  9  1  0      
  4 15  1  0      
  4 16  1  0      
  4 17  1  0      
  5  6  2  0      
  5  7  1  0      
  7  8  1  0      
  8 18  1  0      
  8 19  1  0      
  8 20  1  0      
  9 21  1  0      
  9 22  1  0      
  9 23  1  0      
M  END
$$$$
