Fragment
  Chem3D Core 21.007272619323D

 53 54  0  0  0  0  0  0  0  0999 V2000
    2.2844    6.2023    4.0785 C   0  0  0  0  0  0  0  0  0  0  0  0
    1.5270    5.9956    2.9169 O   0  0  0  0  0  0  0  0  0  0  0  0
    2.4240    5.6065    1.9121 C   0  0  0  0  0  0  0  0  0  0  0  0
    1.6617    5.3646    0.6160 C   0  0  0  0  0  0  0  0  0  0  0  0
    2.6361    4.9419   -0.4755 C   0  0  0  0  0  0  0  0  0  0  0  0
    1.8739    4.7000   -1.7717 C   0  0  0  0  0  0  0  0  0  0  0  0
    2.7709    4.3109   -2.7765 O   0  0  0  0  0  0  0  0  0  0  0  0
    2.1092    4.0962   -3.9194 C   0  0  0  0  0  0  0  0  0  0  0  0
    2.7097    3.7512   -4.9093 O   0  0  0  0  0  0  0  0  0  0  0  0
    0.7518    4.2674   -3.9671 N   0  0  0  0  0  0  0  0  0  0  0  0
   -0.0662    3.2355   -3.6934 C   0  0  0  0  0  0  0  0  0  0  0  0
    0.4685    1.9909   -3.3609 C   0  0  0  0  0  0  0  0  0  0  0  0
   -0.3799    0.9207   -3.0771 C   0  0  0  0  0  0  0  0  0  0  0  0
   -1.7629    1.0952   -3.1257 C   0  0  0  0  0  0  0  0  0  0  0  0
   -2.2976    2.3398   -3.4581 C   0  0  0  0  0  0  0  0  0  0  0  0
   -1.4492    3.4100   -3.7420 C   0  0  0  0  0  0  0  0  0  0  0  0
   -2.6734   -0.0534   -2.8210 C   0  0  0  0  0  0  0  0  0  0  0  0
   -1.8572   -1.2657   -2.4968 C   0  0  0  0  0  0  0  0  0  0  0  0
   -2.0707   -2.4563   -3.1913 C   0  0  0  0  0  0  0  0  0  0  0  0
   -1.3103   -3.5860   -2.8891 C   0  0  0  0  0  0  0  0  0  0  0  0
   -0.3363   -3.5248   -1.8925 C   0  0  0  0  0  0  0  0  0  0  0  0
   -0.1227   -2.3342   -1.1981 C   0  0  0  0  0  0  0  0  0  0  0  0
   -0.8832   -1.2046   -1.5003 C   0  0  0  0  0  0  0  0  0  0  0  0
    0.3970   -4.6141   -1.6012 N   0  0  0  0  0  0  0  0  0  0  0  0
    0.1874   -5.7827   -2.2827 C   0  0  0  0  0  0  0  0  0  0  0  0
   -0.6155   -6.5861   -1.8714 O   0  0  0  0  0  0  0  0  0  0  0  0
    0.9593   -6.0673   -3.5477 C   0  0  0  0  0  0  0  0  0  0  0  0
    1.6129    6.5145    4.9093 H   0  0  0  0  0  0  0  0  0  0  0  0
    2.8023    5.2570    4.3561 H   0  0  0  0  0  0  0  0  0  0  0  0
    3.0390    6.9989    3.8922 H   0  0  0  0  0  0  0  0  0  0  0  0
    3.1761    6.4116    1.7549 H   0  0  0  0  0  0  0  0  0  0  0  0
    2.9407    4.6696    2.2188 H   0  0  0  0  0  0  0  0  0  0  0  0
    0.9096    4.5594    0.7733 H   0  0  0  0  0  0  0  0  0  0  0  0
    1.1450    6.3015    0.3093 H   0  0  0  0  0  0  0  0  0  0  0  0
    3.3883    5.7471   -0.6328 H   0  0  0  0  0  0  0  0  0  0  0  0
    3.1529    4.0050   -0.1689 H   0  0  0  0  0  0  0  0  0  0  0  0
    1.1218    3.8948   -1.6144 H   0  0  0  0  0  0  0  0  0  0  0  0
    1.3572    5.6369   -2.0784 H   0  0  0  0  0  0  0  0  0  0  0  0
    0.3639    5.1704   -4.2084 H   0  0  0  0  0  0  0  0  0  0  0  0
    1.5592    1.8533   -3.3224 H   0  0  0  0  0  0  0  0  0  0  0  0
    0.0417   -0.0609   -2.8149 H   0  0  0  0  0  0  0  0  0  0  0  0
   -3.3883    2.4774   -3.4963 H   0  0  0  0  0  0  0  0  0  0  0  0
   -1.8708    4.3915   -4.0042 H   0  0  0  0  0  0  0  0  0  0  0  0
   -3.3161    0.2043   -1.9497 H   0  0  0  0  0  0  0  0  0  0  0  0
   -3.3141   -0.2637   -3.7065 H   0  0  0  0  0  0  0  0  0  0  0  0
   -2.8388   -2.5045   -3.9773 H   0  0  0  0  0  0  0  0  0  0  0  0
   -1.4787   -4.5250   -3.4367 H   0  0  0  0  0  0  0  0  0  0  0  0
    0.6455   -2.2860   -0.4123 H   0  0  0  0  0  0  0  0  0  0  0  0
   -0.7148   -0.2656   -0.9526 H   0  0  0  0  0  0  0  0  0  0  0  0
    1.1037   -4.5697   -0.8781 H   0  0  0  0  0  0  0  0  0  0  0  0
    1.6447   -5.2174   -3.7638 H   0  0  0  0  0  0  0  0  0  0  0  0
    1.5541   -6.9989   -3.4171 H   0  0  0  0  0  0  0  0  0  0  0  0
    0.2488   -6.1954   -4.3948 H   0  0  0  0  0  0  0  0  0  0  0  0
  1  2  1  0      
  1 28  1  0      
  1 29  1  0      
  1 30  1  0      
  2  3  1  0      
  3  4  1  0      
  3 31  1  0      
  3 32  1  0      
  4  5  1  0      
  4 33  1  0      
  4 34  1  0      
  5  6  1  0      
  5 35  1  0      
  5 36  1  0      
  6  7  1  0      
  6 37  1  0      
  6 38  1  0      
  7  8  1  0      
  8  9  2  0      
  8 10  1  0      
 10 11  1  0      
 10 39  1  0      
 11 12  1  0      
 11 16  2  0      
 12 13  2  0      
 12 40  1  0      
 13 14  1  0      
 13 41  1  0      
 14 15  2  0      
 14 17  1  0      
 15 16  1  0      
 15 42  1  0      
 16 43  1  0      
 17 18  1  0      
 17 44  1  0      
 17 45  1  0      
 18 19  1  0      
 18 23  2  0      
 19 20  2  0      
 19 46  1  0      
 20 21  1  0      
 20 47  1  0      
 21 22  2  0      
 21 24  1  0      
 22 23  1  0      
 22 48  1  0      
 23 49  1  0      
 24 25  1  0      
 24 50  1  0      
 25 26  2  0      
 25 27  1  0      
 27 51  1  0      
 27 52  1  0      
 27 53  1  0      
M  END
$$$$
