Fragment
  Chem3D Core 21.007272619283D

 38 37  0  0  0  0  0  0  0  0999 V2000
   -3.3454   -7.2409   -0.0000 C   0  0  0  0  0  0  0  0  0  0  0  0
   -2.0263   -6.4795   -0.0000 C   0  0  0  0  0  0  0  0  0  0  0  0
   -2.2990   -5.0075   -0.0000 C   0  0  0  0  0  0  0  0  0  0  0  0
   -1.2822   -4.1394   -0.0000 C   0  0  0  0  0  0  0  0  0  0  0  0
   -1.5548   -2.6674   -0.0000 C   0  0  0  0  0  0  0  0  0  0  0  0
   -0.2358   -1.9061   -0.0000 C   0  0  0  0  0  0  0  0  0  0  0  0
   -0.5084   -0.4341   -0.0000 C   0  0  0  0  0  0  0  0  0  0  0  0
    0.5084    0.4341   -0.0000 C   0  0  0  0  0  0  0  0  0  0  0  0
    0.2358    1.9061   -0.0000 C   0  0  0  0  0  0  0  0  0  0  0  0
    1.5548    2.6674   -0.0000 C   0  0  0  0  0  0  0  0  0  0  0  0
    1.2822    4.1394   -0.0000 C   0  0  0  0  0  0  0  0  0  0  0  0
    2.2990    5.0075   -0.0000 C   0  0  0  0  0  0  0  0  0  0  0  0
    2.0263    6.4795   -0.0000 C   0  0  0  0  0  0  0  0  0  0  0  0
    3.3454    7.2409   -0.0000 C   0  0  0  0  0  0  0  0  0  0  0  0
   -3.1427   -8.3352   -0.0000 H   0  0  0  0  0  0  0  0  0  0  0  0
   -3.9283   -6.9720    0.9093 H   0  0  0  0  0  0  0  0  0  0  0  0
   -3.9289   -6.9718   -0.9088 H   0  0  0  0  0  0  0  0  0  0  0  0
   -1.4434   -6.7483   -0.9093 H   0  0  0  0  0  0  0  0  0  0  0  0
   -1.4429   -6.7486    0.9088 H   0  0  0  0  0  0  0  0  0  0  0  0
   -3.3358   -4.6402   -0.0000 H   0  0  0  0  0  0  0  0  0  0  0  0
   -0.2453   -4.5067   -0.0000 H   0  0  0  0  0  0  0  0  0  0  0  0
   -2.1377   -2.3986   -0.9093 H   0  0  0  0  0  0  0  0  0  0  0  0
   -2.1383   -2.3983    0.9088 H   0  0  0  0  0  0  0  0  0  0  0  0
    0.3471   -2.1749    0.9093 H   0  0  0  0  0  0  0  0  0  0  0  0
    0.3477   -2.1751   -0.9088 H   0  0  0  0  0  0  0  0  0  0  0  0
   -1.5452   -0.0668   -0.0000 H   0  0  0  0  0  0  0  0  0  0  0  0
    1.5452    0.0668   -0.0000 H   0  0  0  0  0  0  0  0  0  0  0  0
   -0.3471    2.1749   -0.9093 H   0  0  0  0  0  0  0  0  0  0  0  0
   -0.3477    2.1751    0.9088 H   0  0  0  0  0  0  0  0  0  0  0  0
    2.1377    2.3986    0.9093 H   0  0  0  0  0  0  0  0  0  0  0  0
    2.1383    2.3983   -0.9088 H   0  0  0  0  0  0  0  0  0  0  0  0
    0.2453    4.5067   -0.0000 H   0  0  0  0  0  0  0  0  0  0  0  0
    3.3358    4.6402   -0.0000 H   0  0  0  0  0  0  0  0  0  0  0  0
    1.4434    6.7483   -0.9093 H   0  0  0  0  0  0  0  0  0  0  0  0
    1.4429    6.7486    0.9088 H   0  0  0  0  0  0  0  0  0  0  0  0
    3.1427    8.3352   -0.0000 H   0  0  0  0  0  0  0  0  0  0  0  0
    3.9283    6.9720    0.9093 H   0  0  0  0  0  0  0  0  0  0  0  0
    3.9289    6.9718   -0.9088 H   0  0  0  0  0  0  0  0  0  0  0  0
  1  2  1  0      
  1 15  1  0      
  1 16  1  0      
  1 17  1  0      
  2  3  1  0      
  2 18  1  0      
  2 19  1  0      
  3  4  2  0      
  3 20  1  0      
  4  5  1  0      
  4 21  1  0      
  5  6  1  0      
  5 22  1  0      
  5 23  1  0      
  6  7  1  0      
  6 24  1  0      
  6 25  1  0      
  7  8  2  0      
  7 26  1  0      
  8  9  1  0      
  8 27  1  0      
  9 10  1  0      
  9 28  1  0      
  9 29  1  0      
 10 11  1  0      
 10 30  1  0      
 10 31  1  0      
 11 12  2  0      
 11 32  1  0      
 12 13  1  0      
 12 33  1  0      
 13 14  1  0      
 13 34  1  0      
 13 35  1  0      
 14 36  1  0      
 14 37  1  0      
 14 38  1  0      
M  END
$$$$
