Fragment
  Chem3D Core 21.007272619293D

 15 14  0  0  0  0  0  0  0  0999 V2000
   -2.4213    0.0818   -0.0000 C   0  0  0  0  0  0  0  0  0  0  0  0
   -1.2070    0.7827   -0.0000 O   0  0  0  0  0  0  0  0  0  0  0  0
   -0.1851   -0.1771   -0.0000 C   0  0  0  0  0  0  0  0  0  0  0  0
    1.1683    0.5213   -0.0000 C   0  0  0  0  0  0  0  0  0  0  0  0
    2.2785   -0.5213   -0.0000 C   0  0  0  0  0  0  0  0  0  0  0  0
   -3.2675    0.8046   -0.0000 H   0  0  0  0  0  0  0  0  0  0  0  0
   -2.4800   -0.5574   -0.9093 H   0  0  0  0  0  0  0  0  0  0  0  0
   -2.4801   -0.5581    0.9088 H   0  0  0  0  0  0  0  0  0  0  0  0
   -0.2739   -0.8128    0.9093 H   0  0  0  0  0  0  0  0  0  0  0  0
   -0.2740   -0.8135   -0.9088 H   0  0  0  0  0  0  0  0  0  0  0  0
    1.2571    1.1570   -0.9093 H   0  0  0  0  0  0  0  0  0  0  0  0
    1.2572    1.1577    0.9088 H   0  0  0  0  0  0  0  0  0  0  0  0
    3.2675   -0.0109   -0.0000 H   0  0  0  0  0  0  0  0  0  0  0  0
    2.1897   -1.1570    0.9093 H   0  0  0  0  0  0  0  0  0  0  0  0
    2.1896   -1.1577   -0.9088 H   0  0  0  0  0  0  0  0  0  0  0  0
  1  2  1  0      
  1  6  1  0      
  1  7  1  0      
  1  8  1  0      
  2  3  1  0      
  3  4  1  0      
  3  9  1  0      
  3 10  1  0      
  4  5  1  0      
  4 11  1  0      
  4 12  1  0      
  5 13  1  0      
  5 14  1  0      
  5 15  1  0      
M  END
$$$$
