Fragment
  Chem3D Core 21.007272619283D

 18 17  0  0  0  0  0  0  0  0999 V2000
    1.8979   -0.6329    0.7109 C   0  0  0  0  0  0  0  0  0  0  0  0
    0.5791   -1.3946    0.7109 C   0  0  0  0  0  0  0  0  0  0  0  0
   -0.5791   -0.4056    0.7109 C   0  0  0  0  0  0  0  0  0  0  0  0
   -0.5010    0.4554   -0.5112 C   0  0  0  0  0  0  0  0  0  0  0  0
   -1.4217    1.4017   -0.7222 C   0  0  0  0  0  0  0  0  0  0  0  0
   -1.8972   -1.1687    0.7100 C   0  0  0  0  0  0  0  0  0  0  0  0
    2.7444   -1.3556    0.7109 H   0  0  0  0  0  0  0  0  0  0  0  0
    1.9566    0.0063   -0.1984 H   0  0  0  0  0  0  0  0  0  0  0  0
    1.9566    0.0070    1.6197 H   0  0  0  0  0  0  0  0  0  0  0  0
    0.5205   -2.0338    1.6202 H   0  0  0  0  0  0  0  0  0  0  0  0
    0.5204   -2.0344   -0.1979 H   0  0  0  0  0  0  0  0  0  0  0  0
   -0.5205    0.2342    1.6197 H   0  0  0  0  0  0  0  0  0  0  0  0
    0.3138    0.3096   -1.2356 H   0  0  0  0  0  0  0  0  0  0  0  0
   -1.3643    2.0344   -1.6202 H   0  0  0  0  0  0  0  0  0  0  0  0
   -2.2365    1.5475    0.0022 H   0  0  0  0  0  0  0  0  0  0  0  0
   -2.7444   -0.4468    0.7100 H   0  0  0  0  0  0  0  0  0  0  0  0
   -1.9556   -1.8084    1.6189 H   0  0  0  0  0  0  0  0  0  0  0  0
   -1.9549   -1.8081   -0.1991 H   0  0  0  0  0  0  0  0  0  0  0  0
  1  2  1  0      
  1  7  1  0      
  1  8  1  0      
  1  9  1  0      
  2  3  1  0      
  2 10  1  0      
  2 11  1  0      
  3  4  1  0      
  3  6  1  0      
  3 12  1  0      
  4  5  2  0      
  4 13  1  0      
  5 14  1  0      
  5 15  1  0      
  6 16  1  0      
  6 17  1  0      
  6 18  1  0      
M  END
$$$$
