Fragment
  Chem3D Core 21.007272619283D

 18 17  0  0  0  0  0  0  0  0999 V2000
   -2.4490   -1.6549   -0.0000 C   0  0  0  0  0  0  0  0  0  0  0  0
   -1.1300   -0.8934   -0.0000 C   0  0  0  0  0  0  0  0  0  0  0  0
   -1.4029    0.5785   -0.0000 C   0  0  0  0  0  0  0  0  0  0  0  0
   -0.3863    1.4469   -0.0000 C   0  0  0  0  0  0  0  0  0  0  0  0
    1.0249    0.9473   -0.0000 C   0  0  0  0  0  0  0  0  0  0  0  0
    1.9833    2.1309   -0.0000 C   0  0  0  0  0  0  0  0  0  0  0  0
   -2.2461   -2.7493   -0.0000 H   0  0  0  0  0  0  0  0  0  0  0  0
   -3.0319   -1.3862    0.9093 H   0  0  0  0  0  0  0  0  0  0  0  0
   -3.0325   -1.3860   -0.9088 H   0  0  0  0  0  0  0  0  0  0  0  0
   -0.5471   -1.1621   -0.9093 H   0  0  0  0  0  0  0  0  0  0  0  0
   -0.5465   -1.1623    0.9088 H   0  0  0  0  0  0  0  0  0  0  0  0
   -2.4398    0.9457   -0.0000 H   0  0  0  0  0  0  0  0  0  0  0  0
   -0.5868    2.5285   -0.0000 H   0  0  0  0  0  0  0  0  0  0  0  0
    1.1991    0.3295    0.9093 H   0  0  0  0  0  0  0  0  0  0  0  0
    1.1993    0.3289   -0.9088 H   0  0  0  0  0  0  0  0  0  0  0  0
    3.0325    1.7594   -0.0000 H   0  0  0  0  0  0  0  0  0  0  0  0
    1.8090    2.7487   -0.9093 H   0  0  0  0  0  0  0  0  0  0  0  0
    1.8089    2.7493    0.9088 H   0  0  0  0  0  0  0  0  0  0  0  0
  1  2  1  0      
  1  7  1  0      
  1  8  1  0      
  1  9  1  0      
  2  3  1  0      
  2 10  1  0      
  2 11  1  0      
  3  4  2  0      
  3 12  1  0      
  4  5  1  0      
  4 13  1  0      
  5  6  1  0      
  5 14  1  0      
  5 15  1  0      
  6 16  1  0      
  6 17  1  0      
  6 18  1  0      
M  END
$$$$
