Fragment
  Chem3D Core 21.007272619273D

 20 19  0  0  0  0  0  0  0  0999 V2000
    1.8980   -1.2627    1.0541 C   0  0  0  0  0  0  0  0  0  0  0  0
    0.5791   -2.0243    1.0541 C   0  0  0  0  0  0  0  0  0  0  0  0
   -0.5791   -1.0353    1.0541 C   0  0  0  0  0  0  0  0  0  0  0  0
   -0.5059   -0.2289   -0.0904 O   0  0  0  0  0  0  0  0  0  0  0  0
   -1.5203    0.6435   -0.0985 C   0  0  0  0  0  0  0  0  0  0  0  0
   -1.6611    1.6264   -1.2348 C   0  0  0  0  0  0  0  0  0  0  0  0
   -2.3235    0.6443    0.8038 O   0  0  0  0  0  0  0  0  0  0  0  0
   -1.8972   -1.7983    1.0532 C   0  0  0  0  0  0  0  0  0  0  0  0
    2.7444   -1.9855    1.0541 H   0  0  0  0  0  0  0  0  0  0  0  0
    1.9566   -0.6235    0.1448 H   0  0  0  0  0  0  0  0  0  0  0  0
    1.9567   -0.6229    1.9629 H   0  0  0  0  0  0  0  0  0  0  0  0
    0.5204   -2.6635    1.9634 H   0  0  0  0  0  0  0  0  0  0  0  0
    0.5203   -2.6642    0.1453 H   0  0  0  0  0  0  0  0  0  0  0  0
   -0.5204   -0.3955    1.9629 H   0  0  0  0  0  0  0  0  0  0  0  0
   -0.8338    1.4730   -1.9634 H   0  0  0  0  0  0  0  0  0  0  0  0
   -2.6377    1.4664   -1.7442 H   0  0  0  0  0  0  0  0  0  0  0  0
   -1.6157    2.6642   -0.8352 H   0  0  0  0  0  0  0  0  0  0  0  0
   -2.7444   -1.0764    1.0532 H   0  0  0  0  0  0  0  0  0  0  0  0
   -1.9556   -2.4380    1.9621 H   0  0  0  0  0  0  0  0  0  0  0  0
   -1.9549   -2.4377    0.1440 H   0  0  0  0  0  0  0  0  0  0  0  0
  1  2  1  0      
  1  9  1  0      
  1 10  1  0      
  1 11  1  0      
  2  3  1  0      
  2 12  1  0      
  2 13  1  0      
  3  4  1  0      
  3  8  1  0      
  3 14  1  0      
  4  5  1  0      
  5  6  1  0      
  5  7  2  0      
  6 15  1  0      
  6 16  1  0      
  6 17  1  0      
  8 18  1  0      
  8 19  1  0      
  8 20  1  0      
M  END
$$$$
