Fragment
  Chem3D Core 21.007272619283D

 38 37  0  0  0  0  0  0  0  0999 V2000
   -5.7433   -4.4672   -0.0000 C   0  0  0  0  0  0  0  0  0  0  0  0
   -4.4243   -3.7059   -0.0000 C   0  0  0  0  0  0  0  0  0  0  0  0
   -4.6969   -2.2339   -0.0000 C   0  0  0  0  0  0  0  0  0  0  0  0
   -3.6801   -1.3657   -0.0000 C   0  0  0  0  0  0  0  0  0  0  0  0
   -2.2690   -1.8656   -0.0000 C   0  0  0  0  0  0  0  0  0  0  0  0
   -1.3104   -0.6821   -0.0000 C   0  0  0  0  0  0  0  0  0  0  0  0
    0.1006   -1.1820   -0.0000 C   0  0  0  0  0  0  0  0  0  0  0  0
    1.1174   -0.3138   -0.0000 C   0  0  0  0  0  0  0  0  0  0  0  0
    0.8448    1.1581   -0.0000 C   0  0  0  0  0  0  0  0  0  0  0  0
    2.1638    1.9195   -0.0000 C   0  0  0  0  0  0  0  0  0  0  0  0
    1.8912    3.3914   -0.0000 C   0  0  0  0  0  0  0  0  0  0  0  0
    2.9080    4.2596   -0.0000 C   0  0  0  0  0  0  0  0  0  0  0  0
    4.3191    3.7597   -0.0000 C   0  0  0  0  0  0  0  0  0  0  0  0
    5.2777    4.9432   -0.0000 C   0  0  0  0  0  0  0  0  0  0  0  0
   -5.5406   -5.5616   -0.0000 H   0  0  0  0  0  0  0  0  0  0  0  0
   -6.3262   -4.1984    0.9093 H   0  0  0  0  0  0  0  0  0  0  0  0
   -6.3268   -4.1982   -0.9088 H   0  0  0  0  0  0  0  0  0  0  0  0
   -3.8414   -3.9747   -0.9093 H   0  0  0  0  0  0  0  0  0  0  0  0
   -3.8408   -3.9750    0.9088 H   0  0  0  0  0  0  0  0  0  0  0  0
   -5.7337   -1.8666   -0.0000 H   0  0  0  0  0  0  0  0  0  0  0  0
   -3.8804   -0.2841   -0.0000 H   0  0  0  0  0  0  0  0  0  0  0  0
   -2.0949   -2.4834    0.9093 H   0  0  0  0  0  0  0  0  0  0  0  0
   -2.0947   -2.4840   -0.9088 H   0  0  0  0  0  0  0  0  0  0  0  0
   -1.4846   -0.0643   -0.9093 H   0  0  0  0  0  0  0  0  0  0  0  0
   -1.4848   -0.0637    0.9088 H   0  0  0  0  0  0  0  0  0  0  0  0
    0.3010   -2.2636   -0.0000 H   0  0  0  0  0  0  0  0  0  0  0  0
    2.1543   -0.6812   -0.0000 H   0  0  0  0  0  0  0  0  0  0  0  0
    0.2619    1.4269   -0.9093 H   0  0  0  0  0  0  0  0  0  0  0  0
    0.2613    1.4272    0.9088 H   0  0  0  0  0  0  0  0  0  0  0  0
    2.7467    1.6506    0.9093 H   0  0  0  0  0  0  0  0  0  0  0  0
    2.7473    1.6504   -0.9088 H   0  0  0  0  0  0  0  0  0  0  0  0
    0.8544    3.7587   -0.0000 H   0  0  0  0  0  0  0  0  0  0  0  0
    2.7077    5.3412   -0.0000 H   0  0  0  0  0  0  0  0  0  0  0  0
    4.4932    3.1419    0.9093 H   0  0  0  0  0  0  0  0  0  0  0  0
    4.4934    3.1413   -0.9088 H   0  0  0  0  0  0  0  0  0  0  0  0
    6.3268    4.5715   -0.0000 H   0  0  0  0  0  0  0  0  0  0  0  0
    5.1035    5.5610   -0.9093 H   0  0  0  0  0  0  0  0  0  0  0  0
    5.1033    5.5616    0.9088 H   0  0  0  0  0  0  0  0  0  0  0  0
  1  2  1  0      
  1 15  1  0      
  1 16  1  0      
  1 17  1  0      
  2  3  1  0      
  2 18  1  0      
  2 19  1  0      
  3  4  2  0      
  3 20  1  0      
  4  5  1  0      
  4 21  1  0      
  5  6  1  0      
  5 22  1  0      
  5 23  1  0      
  6  7  1  0      
  6 24  1  0      
  6 25  1  0      
  7  8  2  0      
  7 26  1  0      
  8  9  1  0      
  8 27  1  0      
  9 10  1  0      
  9 28  1  0      
  9 29  1  0      
 10 11  1  0      
 10 30  1  0      
 10 31  1  0      
 11 12  2  0      
 11 32  1  0      
 12 13  1  0      
 12 33  1  0      
 13 14  1  0      
 13 34  1  0      
 13 35  1  0      
 14 36  1  0      
 14 37  1  0      
 14 38  1  0      
M  END
$$$$
