Fragment
  Chem3D Core 21.007272619293D

 38 37  0  0  0  0  0  0  0  0999 V2000
   -1.5384   -0.0236   -1.5438 C   0  0  0  0  0  0  0  0  0  0  0  0
   -2.8574    0.7379   -1.5438 C   0  0  0  0  0  0  0  0  0  0  0  0
   -2.5846    2.2098   -1.5438 C   0  0  0  0  0  0  0  0  0  0  0  0
   -3.8917    3.3262   -1.5438 Cl  0  0  0  0  0  0  0  0  0  0  0  0
   -1.3243    2.6561   -1.5438 C   0  0  0  0  0  0  0  0  0  0  0  0
   -0.1859    1.6839   -1.5438 C   0  0  0  0  0  0  0  0  0  0  0  0
    1.1330    2.4454   -1.5438 C   0  0  0  0  0  0  0  0  0  0  0  0
    2.2714    1.4732   -1.5438 C   0  0  0  0  0  0  0  0  0  0  0  0
    3.8917    2.0471   -1.5438 Cl  0  0  0  0  0  0  0  0  0  0  0  0
    2.0277    0.1586   -1.5438 C   0  0  0  0  0  0  0  0  0  0  0  0
    0.6166   -0.3411   -1.5438 C   0  0  0  0  0  0  0  0  0  0  0  0
    0.6166   -1.8641   -1.5438 C   0  0  0  0  0  0  0  0  0  0  0  0
    2.0278   -2.3638   -1.5438 C   0  0  0  0  0  0  0  0  0  0  0  0
    2.8380   -2.6507   -3.0325 Cl  0  0  0  0  0  0  0  0  0  0  0  0
    2.6579   -2.5869   -0.3859 C   0  0  0  0  0  0  0  0  0  0  0  0
    1.9524   -2.3371    0.9105 C   0  0  0  0  0  0  0  0  0  0  0  0
    2.8847   -2.6672    2.0686 C   0  0  0  0  0  0  0  0  0  0  0  0
   -1.7412   -1.1180   -1.5438 H   0  0  0  0  0  0  0  0  0  0  0  0
   -0.9555    0.2451   -2.4531 H   0  0  0  0  0  0  0  0  0  0  0  0
   -0.9549    0.2454   -0.6350 H   0  0  0  0  0  0  0  0  0  0  0  0
   -3.4403    0.4691   -0.6345 H   0  0  0  0  0  0  0  0  0  0  0  0
   -3.4409    0.4689   -2.4526 H   0  0  0  0  0  0  0  0  0  0  0  0
   -1.1238    3.7377   -1.5438 H   0  0  0  0  0  0  0  0  0  0  0  0
   -0.2447    1.0447   -0.6345 H   0  0  0  0  0  0  0  0  0  0  0  0
   -0.2447    1.0441   -2.4526 H   0  0  0  0  0  0  0  0  0  0  0  0
    1.1917    3.0846   -2.4531 H   0  0  0  0  0  0  0  0  0  0  0  0
    1.1918    3.0853   -0.6350 H   0  0  0  0  0  0  0  0  0  0  0  0
    2.8642   -0.5558   -1.5438 H   0  0  0  0  0  0  0  0  0  0  0  0
    0.0924    0.0293   -0.6345 H   0  0  0  0  0  0  0  0  0  0  0  0
    0.0919    0.0297   -2.4526 H   0  0  0  0  0  0  0  0  0  0  0  0
    0.0924   -2.2346   -2.4531 H   0  0  0  0  0  0  0  0  0  0  0  0
    0.0919   -2.2349   -0.6350 H   0  0  0  0  0  0  0  0  0  0  0  0
    3.6948   -2.9541   -0.3859 H   0  0  0  0  0  0  0  0  0  0  0  0
    1.6533   -1.2666    0.9692 H   0  0  0  0  0  0  0  0  0  0  0  0
    1.0459   -2.9802    0.9693 H   0  0  0  0  0  0  0  0  0  0  0  0
    2.3602   -2.4815    3.0325 H   0  0  0  0  0  0  0  0  0  0  0  0
    3.1838   -3.7377    2.0099 H   0  0  0  0  0  0  0  0  0  0  0  0
    3.7912   -2.0241    2.0098 H   0  0  0  0  0  0  0  0  0  0  0  0
  1  2  1  0      
  1 18  1  0      
  1 19  1  0      
  1 20  1  0      
  2  3  1  0      
  2 21  1  0      
  2 22  1  0      
  3  4  1  0      
  3  5  2  0      
  5  6  1  0      
  5 23  1  0      
  6  7  1  0      
  6 24  1  0      
  6 25  1  0      
  7  8  1  0      
  7 26  1  0      
  7 27  1  0      
  8  9  1  0      
  8 10  2  0      
 10 11  1  0      
 10 28  1  0      
 11 12  1  0      
 11 29  1  0      
 11 30  1  0      
 12 13  1  0      
 12 31  1  0      
 12 32  1  0      
 13 14  1  0      
 13 15  2  0      
 15 16  1  0      
 15 33  1  0      
 16 17  1  0      
 16 34  1  0      
 16 35  1  0      
 17 36  1  0      
 17 37  1  0      
 17 38  1  0      
M  END
$$$$
