Fragment
  Chem3D Core 21.007272619293D

 30 30  0  0  0  0  0  0  0  0999 V2000
    2.0262    5.5780   -1.5399 C   0  0  0  0  0  0  0  0  0  0  0  0
    2.6328    4.3569   -1.2135 O   0  0  0  0  0  0  0  0  0  0  0  0
    1.5982    3.4423   -0.9714 C   0  0  0  0  0  0  0  0  0  0  0  0
    2.1918    2.0873   -0.6093 C   0  0  0  0  0  0  0  0  0  0  0  0
    1.1571    1.1727   -0.3672 O   0  0  0  0  0  0  0  0  0  0  0  0
    1.6700   -0.0212   -0.0482 C   0  0  0  0  0  0  0  0  0  0  0  0
    2.8678   -0.1723   -0.0061 O   0  0  0  0  0  0  0  0  0  0  0  0
    0.8483   -1.0578    0.2268 C   0  0  0  0  0  0  0  0  0  0  0  0
    1.3830   -2.3024    0.5593 C   0  0  0  0  0  0  0  0  0  0  0  0
    0.5346   -3.3726    0.8431 C   0  0  0  0  0  0  0  0  0  0  0  0
   -0.8484   -3.1981    0.7945 C   0  0  0  0  0  0  0  0  0  0  0  0
   -1.3831   -1.9535    0.4621 C   0  0  0  0  0  0  0  0  0  0  0  0
   -0.5347   -0.8833    0.1782 C   0  0  0  0  0  0  0  0  0  0  0  0
   -1.6700   -4.2346    1.0694 C   0  0  0  0  0  0  0  0  0  0  0  0
   -2.8678   -4.0835    1.0273 O   0  0  0  0  0  0  0  0  0  0  0  0
   -1.0916   -5.5812    1.4290 C   0  0  0  0  0  0  0  0  0  0  0  0
    2.8113    6.3406   -1.7419 H   0  0  0  0  0  0  0  0  0  0  0  0
    1.3946    5.4471   -2.4470 H   0  0  0  0  0  0  0  0  0  0  0  0
    1.3913    5.9154   -0.6902 H   0  0  0  0  0  0  0  0  0  0  0  0
    0.9697    3.8084   -0.1289 H   0  0  0  0  0  0  0  0  0  0  0  0
    0.9718    3.3404   -1.8857 H   0  0  0  0  0  0  0  0  0  0  0  0
    2.8203    1.7211   -1.4518 H   0  0  0  0  0  0  0  0  0  0  0  0
    2.8182    2.1892    0.3050 H   0  0  0  0  0  0  0  0  0  0  0  0
    2.4737   -2.4399    0.5977 H   0  0  0  0  0  0  0  0  0  0  0  0
    0.9563   -4.3542    1.1052 H   0  0  0  0  0  0  0  0  0  0  0  0
   -2.4737   -1.8159    0.4238 H   0  0  0  0  0  0  0  0  0  0  0  0
   -0.9563    0.0983   -0.0840 H   0  0  0  0  0  0  0  0  0  0  0  0
    0.0198   -5.5237    1.4154 H   0  0  0  0  0  0  0  0  0  0  0  0
   -1.4351   -5.8720    2.4470 H   0  0  0  0  0  0  0  0  0  0  0  0
   -1.4327   -6.3406    0.6903 H   0  0  0  0  0  0  0  0  0  0  0  0
  1  2  1  0      
  1 17  1  0      
  1 18  1  0      
  1 19  1  0      
  2  3  1  0      
  3  4  1  0      
  3 20  1  0      
  3 21  1  0      
  4  5  1  0      
  4 22  1  0      
  4 23  1  0      
  5  6  1  0      
  6  7  2  0      
  6  8  1  0      
  8  9  1  0      
  8 13  2  0      
  9 10  2  0      
  9 24  1  0      
 10 11  1  0      
 10 25  1  0      
 11 12  2  0      
 11 14  1  0      
 12 13  1  0      
 12 26  1  0      
 13 27  1  0      
 14 15  2  0      
 14 16  1  0      
 16 28  1  0      
 16 29  1  0      
 16 30  1  0      
M  END
$$$$
