Fragment
  Chem3D Core 21.007272619273D

 20 19  0  0  0  0  0  0  0  0999 V2000
   -1.8980   -0.3839   -0.1512 C   0  0  0  0  0  0  0  0  0  0  0  0
   -0.5791   -1.1455   -0.1512 C   0  0  0  0  0  0  0  0  0  0  0  0
    0.5791   -0.1565   -0.1512 C   0  0  0  0  0  0  0  0  0  0  0  0
    0.4996    0.7195    1.0921 C   0  0  0  0  0  0  0  0  0  0  0  0
    1.8972   -0.9195   -0.1503 C   0  0  0  0  0  0  0  0  0  0  0  0
    0.4988    0.7190   -1.3948 C   0  0  0  0  0  0  0  0  0  0  0  0
   -2.7444   -1.1067   -0.1512 H   0  0  0  0  0  0  0  0  0  0  0  0
   -1.9566    0.2553    0.7580 H   0  0  0  0  0  0  0  0  0  0  0  0
   -1.9567    0.2559   -1.0600 H   0  0  0  0  0  0  0  0  0  0  0  0
   -0.5204   -1.7847   -1.0605 H   0  0  0  0  0  0  0  0  0  0  0  0
   -0.5203   -1.7853    0.7576 H   0  0  0  0  0  0  0  0  0  0  0  0
    1.3460    1.4423    1.0921 H   0  0  0  0  0  0  0  0  0  0  0  0
   -0.4637    1.2771    1.0914 H   0  0  0  0  0  0  0  0  0  0  0  0
    0.5583    0.0797    2.0009 H   0  0  0  0  0  0  0  0  0  0  0  0
    2.7444   -0.1976   -0.1503 H   0  0  0  0  0  0  0  0  0  0  0  0
    1.9556   -1.5592   -1.0592 H   0  0  0  0  0  0  0  0  0  0  0  0
    1.9549   -1.5589    0.7588 H   0  0  0  0  0  0  0  0  0  0  0  0
   -0.3866    0.4231   -2.0009 H   0  0  0  0  0  0  0  0  0  0  0  0
    0.4004    1.7853   -1.0914 H   0  0  0  0  0  0  0  0  0  0  0  0
    1.4233    0.5885   -2.0006 H   0  0  0  0  0  0  0  0  0  0  0  0
  1  2  1  0      
  1  7  1  0      
  1  8  1  0      
  1  9  1  0      
  2  3  1  0      
  2 10  1  0      
  2 11  1  0      
  3  4  1  0      
  3  5  1  0      
  3  6  1  0      
  4 12  1  0      
  4 13  1  0      
  4 14  1  0      
  5 15  1  0      
  5 16  1  0      
  5 17  1  0      
  6 18  1  0      
  6 19  1  0      
  6 20  1  0      
M  END
$$$$
