Fragment
  Chem3D Core 21.007272619293D

 32 31  0  0  0  0  0  0  0  0999 V2000
    4.0670    3.7006   -0.0000 C   0  0  0  0  0  0  0  0  0  0  0  0
    2.8527    2.9998   -0.0000 O   0  0  0  0  0  0  0  0  0  0  0  0
    3.1727    1.6348   -0.0000 C   0  0  0  0  0  0  0  0  0  0  0  0
    1.8910    0.8122   -0.0000 C   0  0  0  0  0  0  0  0  0  0  0  0
    2.2386   -0.6706   -0.0000 C   0  0  0  0  0  0  0  0  0  0  0  0
    0.9569   -1.4933   -0.0000 C   0  0  0  0  0  0  0  0  0  0  0  0
    1.2769   -2.8583   -0.0000 O   0  0  0  0  0  0  0  0  0  0  0  0
    0.1559   -3.5888   -0.0000 C   0  0  0  0  0  0  0  0  0  0  0  0
    0.2211   -4.7950   -0.0000 O   0  0  0  0  0  0  0  0  0  0  0  0
   -1.1897   -2.9059   -0.0000 C   0  0  0  0  0  0  0  0  0  0  0  0
   -2.2928   -3.9561   -0.0000 C   0  0  0  0  0  0  0  0  0  0  0  0
   -3.6384   -3.2732   -0.0000 C   0  0  0  0  0  0  0  0  0  0  0  0
   -4.6505   -3.9327   -0.0000 O   0  0  0  0  0  0  0  0  0  0  0  0
   -3.7198   -1.7664   -0.0000 C   0  0  0  0  0  0  0  0  0  0  0  0
    3.8643    4.7950   -0.0000 H   0  0  0  0  0  0  0  0  0  0  0  0
    4.6499    3.4318    0.9093 H   0  0  0  0  0  0  0  0  0  0  0  0
    4.6505    3.4316   -0.9088 H   0  0  0  0  0  0  0  0  0  0  0  0
    3.7676    1.3938   -0.9093 H   0  0  0  0  0  0  0  0  0  0  0  0
    3.7682    1.3935    0.9088 H   0  0  0  0  0  0  0  0  0  0  0  0
    1.2961    1.0532    0.9093 H   0  0  0  0  0  0  0  0  0  0  0  0
    1.2955    1.0535   -0.9088 H   0  0  0  0  0  0  0  0  0  0  0  0
    2.8335   -0.9117   -0.9093 H   0  0  0  0  0  0  0  0  0  0  0  0
    2.8341   -0.9119    0.9088 H   0  0  0  0  0  0  0  0  0  0  0  0
    0.3620   -1.2522    0.9093 H   0  0  0  0  0  0  0  0  0  0  0  0
    0.3614   -1.2520   -0.9088 H   0  0  0  0  0  0  0  0  0  0  0  0
   -1.2829   -2.2708    0.9093 H   0  0  0  0  0  0  0  0  0  0  0  0
   -1.2830   -2.2702   -0.9088 H   0  0  0  0  0  0  0  0  0  0  0  0
   -2.1997   -4.5912   -0.9093 H   0  0  0  0  0  0  0  0  0  0  0  0
   -2.1996   -4.5918    0.9088 H   0  0  0  0  0  0  0  0  0  0  0  0
   -2.6923   -1.3388   -0.0000 H   0  0  0  0  0  0  0  0  0  0  0  0
   -4.2633   -1.4247   -0.9093 H   0  0  0  0  0  0  0  0  0  0  0  0
   -4.2638   -1.4244    0.9088 H   0  0  0  0  0  0  0  0  0  0  0  0
  1  2  1  0      
  1 15  1  0      
  1 16  1  0      
  1 17  1  0      
  2  3  1  0      
  3  4  1  0      
  3 18  1  0      
  3 19  1  0      
  4  5  1  0      
  4 20  1  0      
  4 21  1  0      
  5  6  1  0      
  5 22  1  0      
  5 23  1  0      
  6  7  1  0      
  6 24  1  0      
  6 25  1  0      
  7  8  1  0      
  8  9  2  0      
  8 10  1  0      
 10 11  1  0      
 10 26  1  0      
 10 27  1  0      
 11 12  1  0      
 11 28  1  0      
 11 29  1  0      
 12 13  2  0      
 12 14  1  0      
 14 30  1  0      
 14 31  1  0      
 14 32  1  0      
M  END
$$$$
