Fragment
  Chem3D Core 21.007272619283D

 18 17  0  0  0  0  0  0  0  0999 V2000
    0.5824   -1.3335   -0.0000 C   0  0  0  0  0  0  0  0  0  0  0  0
    1.9013   -0.5719   -0.0000 C   0  0  0  0  0  0  0  0  0  0  0  0
    1.6284    0.9000   -0.0000 C   0  0  0  0  0  0  0  0  0  0  0  0
    2.9355    2.0165   -0.0000 Cl  0  0  0  0  0  0  0  0  0  0  0  0
    0.3681    1.3463   -0.0000 C   0  0  0  0  0  0  0  0  0  0  0  0
   -0.7702    0.3740   -0.0000 C   0  0  0  0  0  0  0  0  0  0  0  0
   -2.0892    1.1354   -0.0000 C   0  0  0  0  0  0  0  0  0  0  0  0
    0.7852   -2.4278   -0.0000 H   0  0  0  0  0  0  0  0  0  0  0  0
   -0.0006   -1.0648    0.9093 H   0  0  0  0  0  0  0  0  0  0  0  0
   -0.0012   -1.0645   -0.9088 H   0  0  0  0  0  0  0  0  0  0  0  0
    2.4842   -0.8406   -0.9093 H   0  0  0  0  0  0  0  0  0  0  0  0
    2.4848   -0.8409    0.9088 H   0  0  0  0  0  0  0  0  0  0  0  0
    0.1676    2.4278   -0.0000 H   0  0  0  0  0  0  0  0  0  0  0  0
   -0.7114   -0.2652   -0.9093 H   0  0  0  0  0  0  0  0  0  0  0  0
   -0.7114   -0.2658    0.9088 H   0  0  0  0  0  0  0  0  0  0  0  0
   -2.9355    0.4126   -0.0000 H   0  0  0  0  0  0  0  0  0  0  0  0
   -2.1480    1.7746    0.9093 H   0  0  0  0  0  0  0  0  0  0  0  0
   -2.1480    1.7752   -0.9088 H   0  0  0  0  0  0  0  0  0  0  0  0
  1  2  1  0      
  1  8  1  0      
  1  9  1  0      
  1 10  1  0      
  2  3  1  0      
  2 11  1  0      
  2 12  1  0      
  3  4  1  0      
  3  5  2  0      
  5  6  1  0      
  5 13  1  0      
  6  7  1  0      
  6 14  1  0      
  6 15  1  0      
  7 16  1  0      
  7 17  1  0      
  7 18  1  0      
M  END
$$$$
