Fragment
  Chem3D Core 21.007272619293D

107112  0  0  0  0  0  0  0  0999 V2000
    0.3294    6.2178    2.7649 C   0  0  0  0  0  0  0  0  0  0  0  0
    1.0670    5.0659    3.0730 O   0  0  0  0  0  0  0  0  0  0  0  0
    0.2429    4.0263    3.3488 C   0  0  0  0  0  0  0  0  0  0  0  0
    0.7776    2.7817    3.6813 C   0  0  0  0  0  0  0  0  0  0  0  0
   -0.0708    1.7115    3.9651 C   0  0  0  0  0  0  0  0  0  0  0  0
   -1.4538    1.8860    3.9165 C   0  0  0  0  0  0  0  0  0  0  0  0
   -1.9885    3.1306    3.5841 C   0  0  0  0  0  0  0  0  0  0  0  0
   -1.1401    4.2008    3.3002 C   0  0  0  0  0  0  0  0  0  0  0  0
   -2.3643    0.7374    4.2212 C   0  0  0  0  0  0  0  0  0  0  0  0
   -1.5339   -0.4959    4.5510 C   0  0  0  0  0  0  0  0  0  0  0  0
   -3.2438    1.0901    5.4135 C   0  0  0  0  0  0  0  0  0  0  0  0
   -3.2261    0.4546    3.0302 C   0  0  0  0  0  0  0  0  0  0  0  0
   -2.6409    0.1071    1.8127 C   0  0  0  0  0  0  0  0  0  0  0  0
   -3.4439   -0.1563    0.7030 C   0  0  0  0  0  0  0  0  0  0  0  0
   -4.8320   -0.0722    0.8108 C   0  0  0  0  0  0  0  0  0  0  0  0
   -5.4172    0.2752    2.0283 C   0  0  0  0  0  0  0  0  0  0  0  0
   -4.6142    0.5387    3.1380 C   0  0  0  0  0  0  0  0  0  0  0  0
   -5.6120   -0.3281   -0.2672 O   0  0  0  0  0  0  0  0  0  0  0  0
   -4.8872   -0.6444   -1.3465 C   0  0  0  0  0  0  0  0  0  0  0  0
   -4.5197    0.2230   -2.1027 O   0  0  0  0  0  0  0  0  0  0  0  0
   -4.5695   -1.9214   -1.5883 O   0  0  0  0  0  0  0  0  0  0  0  0
   -3.8354   -2.0565   -2.7192 C   0  0  0  0  0  0  0  0  0  0  0  0
   -4.2517   -2.9340   -3.7202 C   0  0  0  0  0  0  0  0  0  0  0  0
   -3.4959   -3.0731   -4.8843 C   0  0  0  0  0  0  0  0  0  0  0  0
   -2.3240   -2.3346   -5.0473 C   0  0  0  0  0  0  0  0  0  0  0  0
   -1.9077   -1.4571   -4.0463 C   0  0  0  0  0  0  0  0  0  0  0  0
   -2.6634   -1.3180   -2.8822 C   0  0  0  0  0  0  0  0  0  0  0  0
   -1.5129   -2.4839   -6.2967 C   0  0  0  0  0  0  0  0  0  0  0  0
   -2.1813   -3.4950   -7.2189 C   0  0  0  0  0  0  0  0  0  0  0  0
   -1.4183   -1.1382   -7.0035 C   0  0  0  0  0  0  0  0  0  0  0  0
   -0.1386   -2.9620   -5.9450 C   0  0  0  0  0  0  0  0  0  0  0  0
    0.2419   -3.0679   -4.6072 C   0  0  0  0  0  0  0  0  0  0  0  0
    1.5225   -3.5132   -4.2796 C   0  0  0  0  0  0  0  0  0  0  0  0
    2.4225   -3.8527   -5.2896 C   0  0  0  0  0  0  0  0  0  0  0  0
    2.0421   -3.7468   -6.6273 C   0  0  0  0  0  0  0  0  0  0  0  0
    0.7615   -3.3014   -6.9550 C   0  0  0  0  0  0  0  0  0  0  0  0
    3.6665   -4.2853   -4.9713 O   0  0  0  0  0  0  0  0  0  0  0  0
    3.8599   -4.3253   -3.6479 C   0  0  0  0  0  0  0  0  0  0  0  0
    4.2955   -3.3571   -3.0716 O   0  0  0  0  0  0  0  0  0  0  0  0
    3.5708   -5.4377   -2.9630 O   0  0  0  0  0  0  0  0  0  0  0  0
    3.8275   -5.3001   -1.6396 C   0  0  0  0  0  0  0  0  0  0  0  0
    4.6504   -6.2197   -0.9896 C   0  0  0  0  0  0  0  0  0  0  0  0
    4.9145   -6.0781    0.3727 C   0  0  0  0  0  0  0  0  0  0  0  0
    4.3559   -5.0168    1.0848 C   0  0  0  0  0  0  0  0  0  0  0  0
    3.5331   -4.0971    0.4347 C   0  0  0  0  0  0  0  0  0  0  0  0
    3.2688   -4.2388   -0.9276 C   0  0  0  0  0  0  0  0  0  0  0  0
    4.6394   -4.8648    2.5468 C   0  0  0  0  0  0  0  0  0  0  0  0
    5.5566   -5.9904    3.0065 C   0  0  0  0  0  0  0  0  0  0  0  0
    5.3184   -3.5243    2.7949 C   0  0  0  0  0  0  0  0  0  0  0  0
    3.3546   -4.9241    3.3129 C   0  0  0  0  0  0  0  0  0  0  0  0
    3.3651   -4.8047    4.7025 C   0  0  0  0  0  0  0  0  0  0  0  0
    2.1680   -4.8600    5.4162 C   0  0  0  0  0  0  0  0  0  0  0  0
    0.9604   -5.0346    4.7403 C   0  0  0  0  0  0  0  0  0  0  0  0
    0.9499   -5.1539    3.3507 C   0  0  0  0  0  0  0  0  0  0  0  0
    2.1471   -5.0986    2.6369 C   0  0  0  0  0  0  0  0  0  0  0  0
   -0.2025   -5.0883    5.4337 O   0  0  0  0  0  0  0  0  0  0  0  0
   -0.0072   -4.9573    6.7508 C   0  0  0  0  0  0  0  0  0  0  0  0
    0.1815   -5.9357    7.4337 O   0  0  0  0  0  0  0  0  0  0  0  0
   -0.0227   -3.5873    7.3833 C   0  0  0  0  0  0  0  0  0  0  0  0
    1.0263    7.0567    2.5424 H   0  0  0  0  0  0  0  0  0  0  0  0
   -0.3099    6.0214    1.8753 H   0  0  0  0  0  0  0  0  0  0  0  0
   -0.3132    6.4896    3.6321 H   0  0  0  0  0  0  0  0  0  0  0  0
    1.8683    2.6442    3.7198 H   0  0  0  0  0  0  0  0  0  0  0  0
    0.3508    0.7299    4.2273 H   0  0  0  0  0  0  0  0  0  0  0  0
   -3.0792    3.2682    3.5459 H   0  0  0  0  0  0  0  0  0  0  0  0
   -1.5618    5.1824    3.0380 H   0  0  0  0  0  0  0  0  0  0  0  0
   -2.2109   -1.3499    4.7775 H   0  0  0  0  0  0  0  0  0  0  0  0
   -0.8912   -0.7537    3.6797 H   0  0  0  0  0  0  0  0  0  0  0  0
   -0.8932   -0.2857    5.4365 H   0  0  0  0  0  0  0  0  0  0  0  0
   -3.9212    0.2368    5.6408 H   0  0  0  0  0  0  0  0  0  0  0  0
   -3.8511    1.9911    5.1722 H   0  0  0  0  0  0  0  0  0  0  0  0
   -2.6022    1.3002    6.2983 H   0  0  0  0  0  0  0  0  0  0  0  0
   -1.5462    0.0407    1.7277 H   0  0  0  0  0  0  0  0  0  0  0  0
   -2.9824   -0.4303   -0.2572 H   0  0  0  0  0  0  0  0  0  0  0  0
   -6.5119    0.3415    2.1133 H   0  0  0  0  0  0  0  0  0  0  0  0
   -5.0756    0.8128    4.0982 H   0  0  0  0  0  0  0  0  0  0  0  0
   -5.1760   -3.5164   -3.5917 H   0  0  0  0  0  0  0  0  0  0  0  0
   -3.8242   -3.7653   -5.6737 H   0  0  0  0  0  0  0  0  0  0  0  0
   -0.9834   -0.8746   -4.1750 H   0  0  0  0  0  0  0  0  0  0  0  0
   -2.3351   -0.6259   -2.0927 H   0  0  0  0  0  0  0  0  0  0  0  0
   -1.5783   -3.6060   -8.1478 H   0  0  0  0  0  0  0  0  0  0  0  0
   -2.2505   -4.4785   -6.7024 H   0  0  0  0  0  0  0  0  0  0  0  0
   -3.2031   -3.1396   -7.4804 H   0  0  0  0  0  0  0  0  0  0  0  0
   -0.8154   -1.2481   -7.9326 H   0  0  0  0  0  0  0  0  0  0  0  0
   -0.9292   -0.3995   -6.3297 H   0  0  0  0  0  0  0  0  0  0  0  0
   -2.4405   -0.7837   -7.2645 H   0  0  0  0  0  0  0  0  0  0  0  0
   -0.4680   -2.8003   -3.8107 H   0  0  0  0  0  0  0  0  0  0  0  0
    1.8226   -3.5967   -3.2246 H   0  0  0  0  0  0  0  0  0  0  0  0
    2.7519   -4.0146   -7.4239 H   0  0  0  0  0  0  0  0  0  0  0  0
    0.4614   -3.2179   -8.0100 H   0  0  0  0  0  0  0  0  0  0  0  0
    5.0910   -7.0567   -1.5512 H   0  0  0  0  0  0  0  0  0  0  0  0
    5.5634   -6.8034    0.8855 H   0  0  0  0  0  0  0  0  0  0  0  0
    3.0926   -3.2601    0.9963 H   0  0  0  0  0  0  0  0  0  0  0  0
    2.6199   -3.5135   -1.4403 H   0  0  0  0  0  0  0  0  0  0  0  0
    5.7674   -5.8774    4.0935 H   0  0  0  0  0  0  0  0  0  0  0  0
    5.0604   -6.9701    2.8252 H   0  0  0  0  0  0  0  0  0  0  0  0
    6.5119   -5.9464    2.4370 H   0  0  0  0  0  0  0  0  0  0  0  0
    5.5297   -3.4103    3.8817 H   0  0  0  0  0  0  0  0  0  0  0  0
    4.6479   -2.7017    2.4595 H   0  0  0  0  0  0  0  0  0  0  0  0
    6.2735   -3.4813    2.2249 H   0  0  0  0  0  0  0  0  0  0  0  0
    4.3174   -4.6670    5.2356 H   0  0  0  0  0  0  0  0  0  0  0  0
    2.1762   -4.7660    6.5122 H   0  0  0  0  0  0  0  0  0  0  0  0
   -0.0024   -5.2915    2.8176 H   0  0  0  0  0  0  0  0  0  0  0  0
    2.1389   -5.1927    1.5410 H   0  0  0  0  0  0  0  0  0  0  0  0
   -0.2095   -2.8187    6.6003 H   0  0  0  0  0  0  0  0  0  0  0  0
   -0.8303   -3.5414    8.1478 H   0  0  0  0  0  0  0  0  0  0  0  0
    0.9599   -3.3916    7.8681 H   0  0  0  0  0  0  0  0  0  0  0  0
  1  2  1  0      
  1 60  1  0      
  1 61  1  0      
  1 62  1  0      
  2  3  1  0      
  3  4  1  0      
  3  8  2  0      
  4  5  2  0      
  4 63  1  0      
  5  6  1  0      
  5 64  1  0      
  6  7  2  0      
  6  9  1  0      
  7  8  1  0      
  7 65  1  0      
  8 66  1  0      
  9 10  1  0      
  9 11  1  0      
  9 12  1  0      
 10 67  1  0      
 10 68  1  0      
 10 69  1  0      
 11 70  1  0      
 11 71  1  0      
 11 72  1  0      
 12 13  1  0      
 12 17  2  0      
 13 14  2  0      
 13 73  1  0      
 14 15  1  0      
 14 74  1  0      
 15 16  2  0      
 15 18  1  0      
 16 17  1  0      
 16 75  1  0      
 17 76  1  0      
 18 19  1  0      
 19 20  2  0      
 19 21  1  0      
 21 22  1  0      
 22 23  1  0      
 22 27  2  0      
 23 24  2  0      
 23 77  1  0      
 24 25  1  0      
 24 78  1  0      
 25 26  2  0      
 25 28  1  0      
 26 27  1  0      
 26 79  1  0      
 27 80  1  0      
 28 29  1  0      
 28 30  1  0      
 28 31  1  0      
 29 81  1  0      
 29 82  1  0      
 29 83  1  0      
 30 84  1  0      
 30 85  1  0      
 30 86  1  0      
 31 32  1  0      
 31 36  2  0      
 32 33  2  0      
 32 87  1  0      
 33 34  1  0      
 33 88  1  0      
 34 35  2  0      
 34 37  1  0      
 35 36  1  0      
 35 89  1  0      
 36 90  1  0      
 37 38  1  0      
 38 39  2  0      
 38 40  1  0      
 40 41  1  0      
 41 42  1  0      
 41 46  2  0      
 42 43  2  0      
 42 91  1  0      
 43 44  1  0      
 43 92  1  0      
 44 45  2  0      
 44 47  1  0      
 45 46  1  0      
 45 93  1  0      
 46 94  1  0      
 47 48  1  0      
 47 49  1  0      
 47 50  1  0      
 48 95  1  0      
 48 96  1  0      
 48 97  1  0      
 49 98  1  0      
 49 99  1  0      
 49100  1  0      
 50 51  1  0      
 50 55  2  0      
 51 52  2  0      
 51101  1  0      
 52 53  1  0      
 52102  1  0      
 53 54  2  0      
 53 56  1  0      
 54 55  1  0      
 54103  1  0      
 55104  1  0      
 56 57  1  0      
 57 58  2  0      
 57 59  1  0      
 59105  1  0      
 59106  1  0      
 59107  1  0      
M  END
$$$$
