Fragment
  Chem3D Core 21.007272619293D

 35 34  0  0  0  0  0  0  0  0999 V2000
   -2.9459   -2.9430    0.6247 C   0  0  0  0  0  0  0  0  0  0  0  0
   -1.7316   -2.2422    0.6247 O   0  0  0  0  0  0  0  0  0  0  0  0
   -0.7097   -3.2020    0.6247 C   0  0  0  0  0  0  0  0  0  0  0  0
   -0.8306   -4.0733   -0.6186 C   0  0  0  0  0  0  0  0  0  0  0  0
    0.6306   -2.5087    0.6238 C   0  0  0  0  0  0  0  0  0  0  0  0
    1.6477   -3.1604    0.6237 O   0  0  0  0  0  0  0  0  0  0  0  0
    0.6924   -1.1722    0.6232 O   0  0  0  0  0  0  0  0  0  0  0  0
    2.0313   -0.7564    0.6224 C   0  0  0  0  0  0  0  0  0  0  0  0
    2.7292   -1.2917   -0.6210 C   0  0  0  0  0  0  0  0  0  0  0  0
    2.0890    0.7515    0.6208 C   0  0  0  0  0  0  0  0  0  0  0  0
    3.1575    1.3151    0.6199 O   0  0  0  0  0  0  0  0  0  0  0  0
    0.9567    1.4643    0.6203 O   0  0  0  0  0  0  0  0  0  0  0  0
    1.2552    2.8342    0.6187 C   0  0  0  0  0  0  0  0  0  0  0  0
    2.0644    3.1768   -0.6251 C   0  0  0  0  0  0  0  0  0  0  0  0
   -0.0283    3.6278    0.6173 C   0  0  0  0  0  0  0  0  0  0  0  0
    0.0083    4.8353    0.6159 O   0  0  0  0  0  0  0  0  0  0  0  0
   -1.3573    2.9132    0.6177 C   0  0  0  0  0  0  0  0  0  0  0  0
   -3.7921   -2.2201    0.6247 H   0  0  0  0  0  0  0  0  0  0  0  0
   -3.0047   -3.5822   -0.2845 H   0  0  0  0  0  0  0  0  0  0  0  0
   -3.0048   -3.5828    1.5335 H   0  0  0  0  0  0  0  0  0  0  0  0
   -0.7987   -3.8384    1.5335 H   0  0  0  0  0  0  0  0  0  0  0  0
   -0.0194   -4.8353   -0.6186 H   0  0  0  0  0  0  0  0  0  0  0  0
   -1.8192   -4.5847   -0.6179 H   0  0  0  0  0  0  0  0  0  0  0  0
   -0.7417   -3.4370   -1.5274 H   0  0  0  0  0  0  0  0  0  0  0  0
    2.5415   -1.1471    1.5312 H   0  0  0  0  0  0  0  0  0  0  0  0
    3.7921   -0.9617   -0.6216 H   0  0  0  0  0  0  0  0  0  0  0  0
    2.6866   -2.4039   -0.6198 H   0  0  0  0  0  0  0  0  0  0  0  0
    2.2190   -0.9010   -1.5297 H   0  0  0  0  0  0  0  0  0  0  0  0
    1.8470    3.0858    1.5271 H   0  0  0  0  0  0  0  0  0  0  0  0
    2.3014    4.2643   -0.6263 H   0  0  0  0  0  0  0  0  0  0  0  0
    3.0111    2.5914   -0.6241 H   0  0  0  0  0  0  0  0  0  0  0  0
    1.4726    2.9252   -1.5335 H   0  0  0  0  0  0  0  0  0  0  0  0
   -1.1877    1.8132    0.6191 H   0  0  0  0  0  0  0  0  0  0  0  0
   -1.9322    3.2005    1.5264 H   0  0  0  0  0  0  0  0  0  0  0  0
   -1.9321    3.1986   -0.2917 H   0  0  0  0  0  0  0  0  0  0  0  0
  1  2  1  0      
  1 18  1  0      
  1 19  1  0      
  1 20  1  0      
  2  3  1  0      
  3  4  1  0      
  3  5  1  0      
  3 21  1  0      
  4 22  1  0      
  4 23  1  0      
  4 24  1  0      
  5  6  2  0      
  5  7  1  0      
  7  8  1  0      
  8  9  1  0      
  8 10  1  0      
  8 25  1  0      
  9 26  1  0      
  9 27  1  0      
  9 28  1  0      
 10 11  2  0      
 10 12  1  0      
 12 13  1  0      
 13 14  1  0      
 13 15  1  0      
 13 29  1  0      
 14 30  1  0      
 14 31  1  0      
 14 32  1  0      
 15 16  2  0      
 15 17  1  0      
 17 33  1  0      
 17 34  1  0      
 17 35  1  0      
M  END
$$$$
