Fragment
  Chem3D Core 21.007272619283D

 18 17  0  0  0  0  0  0  0  0999 V2000
    1.6156   -1.6202   -0.0000 C   0  0  0  0  0  0  0  0  0  0  0  0
    0.2967   -2.3819   -0.0000 C   0  0  0  0  0  0  0  0  0  0  0  0
   -0.8417   -1.4097   -0.0000 C   0  0  0  0  0  0  0  0  0  0  0  0
   -2.4620   -1.9837   -0.0000 Cl  0  0  0  0  0  0  0  0  0  0  0  0
   -0.5981   -0.0951   -0.0000 C   0  0  0  0  0  0  0  0  0  0  0  0
   -1.7366    0.8770   -0.0000 C   0  0  0  0  0  0  0  0  0  0  0  0
   -1.1909    2.2989   -0.0000 C   0  0  0  0  0  0  0  0  0  0  0  0
    2.4620   -2.3430   -0.0000 H   0  0  0  0  0  0  0  0  0  0  0  0
    1.6743   -0.9810   -0.9093 H   0  0  0  0  0  0  0  0  0  0  0  0
    1.6744   -0.9804    0.9088 H   0  0  0  0  0  0  0  0  0  0  0  0
    0.2381   -3.0211    0.9093 H   0  0  0  0  0  0  0  0  0  0  0  0
    0.2380   -3.0217   -0.9088 H   0  0  0  0  0  0  0  0  0  0  0  0
    0.4387    0.2722   -0.0000 H   0  0  0  0  0  0  0  0  0  0  0  0
   -2.3587    0.7190   -0.9093 H   0  0  0  0  0  0  0  0  0  0  0  0
   -2.3593    0.7188    0.9088 H   0  0  0  0  0  0  0  0  0  0  0  0
   -2.0373    3.0217   -0.0000 H   0  0  0  0  0  0  0  0  0  0  0  0
   -0.5688    2.4570    0.9093 H   0  0  0  0  0  0  0  0  0  0  0  0
   -0.5681    2.4571   -0.9088 H   0  0  0  0  0  0  0  0  0  0  0  0
  1  2  1  0      
  1  8  1  0      
  1  9  1  0      
  1 10  1  0      
  2  3  1  0      
  2 11  1  0      
  2 12  1  0      
  3  4  1  0      
  3  5  2  0      
  5  6  1  0      
  5 13  1  0      
  6  7  1  0      
  6 14  1  0      
  6 15  1  0      
  7 16  1  0      
  7 17  1  0      
  7 18  1  0      
M  END
$$$$
