Fragment
  Chem3D Core 21.007272619283D

 18 17  0  0  0  0  0  0  0  0999 V2000
   -1.5548   -2.6674   -0.0000 C   0  0  0  0  0  0  0  0  0  0  0  0
   -0.2358   -1.9061   -0.0000 C   0  0  0  0  0  0  0  0  0  0  0  0
   -0.5084   -0.4341   -0.0000 C   0  0  0  0  0  0  0  0  0  0  0  0
    0.5084    0.4341   -0.0000 C   0  0  0  0  0  0  0  0  0  0  0  0
    0.2358    1.9061   -0.0000 C   0  0  0  0  0  0  0  0  0  0  0  0
    1.5548    2.6674   -0.0000 C   0  0  0  0  0  0  0  0  0  0  0  0
   -1.3521   -3.7618   -0.0000 H   0  0  0  0  0  0  0  0  0  0  0  0
   -2.1377   -2.3986    0.9093 H   0  0  0  0  0  0  0  0  0  0  0  0
   -2.1383   -2.3983   -0.9088 H   0  0  0  0  0  0  0  0  0  0  0  0
    0.3471   -2.1749   -0.9093 H   0  0  0  0  0  0  0  0  0  0  0  0
    0.3477   -2.1751    0.9088 H   0  0  0  0  0  0  0  0  0  0  0  0
   -1.5452   -0.0668   -0.0000 H   0  0  0  0  0  0  0  0  0  0  0  0
    1.5452    0.0668   -0.0000 H   0  0  0  0  0  0  0  0  0  0  0  0
   -0.3471    2.1749   -0.9093 H   0  0  0  0  0  0  0  0  0  0  0  0
   -0.3477    2.1751    0.9088 H   0  0  0  0  0  0  0  0  0  0  0  0
    1.3521    3.7618   -0.0000 H   0  0  0  0  0  0  0  0  0  0  0  0
    2.1377    2.3986    0.9093 H   0  0  0  0  0  0  0  0  0  0  0  0
    2.1383    2.3983   -0.9088 H   0  0  0  0  0  0  0  0  0  0  0  0
  1  2  1  0      
  1  7  1  0      
  1  8  1  0      
  1  9  1  0      
  2  3  1  0      
  2 10  1  0      
  2 11  1  0      
  3  4  2  0      
  3 12  1  0      
  4  5  1  0      
  4 13  1  0      
  5  6  1  0      
  5 14  1  0      
  5 15  1  0      
  6 16  1  0      
  6 17  1  0      
  6 18  1  0      
M  END
$$$$
