Fragment
  Chem3D Core 21.007272619283D

 21 20  0  0  0  0  0  0  0  0999 V2000
    1.7734   -1.6198   -0.0000 C   0  0  0  0  0  0  0  0  0  0  0  0
    0.4545   -2.3814   -0.0000 C   0  0  0  0  0  0  0  0  0  0  0  0
   -0.6839   -1.4093   -0.0000 C   0  0  0  0  0  0  0  0  0  0  0  0
   -2.0950   -1.9091   -0.0000 C   0  0  0  0  0  0  0  0  0  0  0  0
   -0.4404   -0.0947   -0.0000 C   0  0  0  0  0  0  0  0  0  0  0  0
   -1.5788    0.8775   -0.0000 C   0  0  0  0  0  0  0  0  0  0  0  0
   -1.0331    2.2994   -0.0000 C   0  0  0  0  0  0  0  0  0  0  0  0
    2.6198   -2.3426   -0.0000 H   0  0  0  0  0  0  0  0  0  0  0  0
    1.8320   -0.9806   -0.9093 H   0  0  0  0  0  0  0  0  0  0  0  0
    1.8321   -0.9800    0.9088 H   0  0  0  0  0  0  0  0  0  0  0  0
    0.3958   -3.0206    0.9093 H   0  0  0  0  0  0  0  0  0  0  0  0
    0.3957   -3.0212   -0.9088 H   0  0  0  0  0  0  0  0  0  0  0  0
   -2.0949   -3.0221   -0.0000 H   0  0  0  0  0  0  0  0  0  0  0  0
   -2.6192   -1.5387    0.9093 H   0  0  0  0  0  0  0  0  0  0  0  0
   -2.6198   -1.5383   -0.9088 H   0  0  0  0  0  0  0  0  0  0  0  0
    0.5965    0.2726   -0.0000 H   0  0  0  0  0  0  0  0  0  0  0  0
   -2.2009    0.7194   -0.9093 H   0  0  0  0  0  0  0  0  0  0  0  0
   -2.2015    0.7193    0.9088 H   0  0  0  0  0  0  0  0  0  0  0  0
   -1.8795    3.0221   -0.0000 H   0  0  0  0  0  0  0  0  0  0  0  0
   -0.4110    2.4574    0.9093 H   0  0  0  0  0  0  0  0  0  0  0  0
   -0.4104    2.4576   -0.9088 H   0  0  0  0  0  0  0  0  0  0  0  0
  1  2  1  0      
  1  8  1  0      
  1  9  1  0      
  1 10  1  0      
  2  3  1  0      
  2 11  1  0      
  2 12  1  0      
  3  4  1  0      
  3  5  2  0      
  4 13  1  0      
  4 14  1  0      
  4 15  1  0      
  5  6  1  0      
  5 16  1  0      
  6  7  1  0      
  6 17  1  0      
  6 18  1  0      
  7 19  1  0      
  7 20  1  0      
  7 21  1  0      
M  END
$$$$
