Fragment
  Chem3D Core 21.007272619283D

 14 13  0  0  0  0  0  0  0  0999 V2000
   -1.4178   -0.3841    0.3567 C   0  0  0  0  0  0  0  0  0  0  0  0
   -0.0988   -1.1456    0.3567 C   0  0  0  0  0  0  0  0  0  0  0  0
    1.0593   -0.1564    0.3567 C   0  0  0  0  0  0  0  0  0  0  0  0
    0.9865    0.6442    1.4930 F   0  0  0  0  0  0  0  0  0  0  0  0
    2.2641   -0.8536    0.3575 F   0  0  0  0  0  0  0  0  0  0  0  0
    0.9788    0.7191   -0.8869 C   0  0  0  0  0  0  0  0  0  0  0  0
   -2.2641   -1.1069    0.3567 H   0  0  0  0  0  0  0  0  0  0  0  0
   -1.4765    0.2551    1.2659 H   0  0  0  0  0  0  0  0  0  0  0  0
   -1.4766    0.2557   -0.5521 H   0  0  0  0  0  0  0  0  0  0  0  0
   -0.0401   -1.7848   -0.5526 H   0  0  0  0  0  0  0  0  0  0  0  0
   -0.0400   -1.7854    1.2655 H   0  0  0  0  0  0  0  0  0  0  0  0
    0.0935    0.4231   -1.4930 H   0  0  0  0  0  0  0  0  0  0  0  0
    0.8804    1.7854   -0.5836 H   0  0  0  0  0  0  0  0  0  0  0  0
    1.9034    0.5886   -1.4927 H   0  0  0  0  0  0  0  0  0  0  0  0
  1  2  1  0      
  1  7  1  0      
  1  8  1  0      
  1  9  1  0      
  2  3  1  0      
  2 10  1  0      
  2 11  1  0      
  3  4  1  0      
  3  5  1  0      
  3  6  1  0      
  6 12  1  0      
  6 13  1  0      
  6 14  1  0      
M  END
$$$$
