Fragment
  Chem3D Core 21.007272619273D

 17 16  0  0  0  0  0  0  0  0999 V2000
   -1.8980   -0.2124   -0.6214 C   0  0  0  0  0  0  0  0  0  0  0  0
   -0.5791   -0.9740   -0.6214 C   0  0  0  0  0  0  0  0  0  0  0  0
    0.5791    0.0150   -0.6214 C   0  0  0  0  0  0  0  0  0  0  0  0
    0.4996    0.8910    0.6219 C   0  0  0  0  0  0  0  0  0  0  0  0
    1.8972   -0.7479   -0.6205 C   0  0  0  0  0  0  0  0  0  0  0  0
   -2.7444   -0.9351   -0.6214 H   0  0  0  0  0  0  0  0  0  0  0  0
   -1.9566    0.4268    0.2878 H   0  0  0  0  0  0  0  0  0  0  0  0
   -1.9567    0.4275   -1.5302 H   0  0  0  0  0  0  0  0  0  0  0  0
   -0.5204   -1.6132   -1.5307 H   0  0  0  0  0  0  0  0  0  0  0  0
   -0.5203   -1.6138    0.2874 H   0  0  0  0  0  0  0  0  0  0  0  0
    0.5204    0.6549   -1.5302 H   0  0  0  0  0  0  0  0  0  0  0  0
    1.3460    1.6138    0.6219 H   0  0  0  0  0  0  0  0  0  0  0  0
   -0.4637    1.4486    0.6212 H   0  0  0  0  0  0  0  0  0  0  0  0
    0.5583    0.2512    1.5307 H   0  0  0  0  0  0  0  0  0  0  0  0
    2.7444   -0.0260   -0.6205 H   0  0  0  0  0  0  0  0  0  0  0  0
    1.9556   -1.3876   -1.5294 H   0  0  0  0  0  0  0  0  0  0  0  0
    1.9549   -1.3874    0.2886 H   0  0  0  0  0  0  0  0  0  0  0  0
  1  2  1  0      
  1  6  1  0      
  1  7  1  0      
  1  8  1  0      
  2  3  1  0      
  2  9  1  0      
  2 10  1  0      
  3  4  1  0      
  3  5  1  0      
  3 11  1  0      
  4 12  1  0      
  4 13  1  0      
  4 14  1  0      
  5 15  1  0      
  5 16  1  0      
  5 17  1  0      
M  END
$$$$
