Fragment
  Chem3D Core 21.007272619303D

 25 25  0  0  0  0  0  0  0  0999 V2000
    0.4858    2.7714   -0.7190 C   0  0  0  0  0  0  0  0  0  0  0  0
    1.2234    1.6196   -0.4109 O   0  0  0  0  0  0  0  0  0  0  0  0
    0.3992    0.5800   -0.1351 C   0  0  0  0  0  0  0  0  0  0  0  0
    0.9339   -0.6647    0.1974 C   0  0  0  0  0  0  0  0  0  0  0  0
    2.4183   -0.8519    0.2497 C   0  0  0  0  0  0  0  0  0  0  0  0
    0.0855   -1.7349    0.4812 C   0  0  0  0  0  0  0  0  0  0  0  0
   -1.2975   -1.5604    0.4326 C   0  0  0  0  0  0  0  0  0  0  0  0
   -1.8322   -0.3158    0.1002 C   0  0  0  0  0  0  0  0  0  0  0  0
   -0.9838    0.7544   -0.1837 C   0  0  0  0  0  0  0  0  0  0  0  0
   -1.5576    2.0903   -0.5405 C   0  0  0  0  0  0  0  0  0  0  0  0
   -2.2080   -2.7089    0.7373 C   0  0  0  0  0  0  0  0  0  0  0  0
    1.1826    3.6103   -0.9415 H   0  0  0  0  0  0  0  0  0  0  0  0
   -0.1535    2.5750   -1.6086 H   0  0  0  0  0  0  0  0  0  0  0  0
   -0.1568    3.0432    0.1482 H   0  0  0  0  0  0  0  0  0  0  0  0
    2.9229    0.1069   -0.0050 H   0  0  0  0  0  0  0  0  0  0  0  0
    2.7161   -1.1663    1.2750 H   0  0  0  0  0  0  0  0  0  0  0  0
    2.7192   -1.6350   -0.4816 H   0  0  0  0  0  0  0  0  0  0  0  0
    0.5072   -2.7164    0.7434 H   0  0  0  0  0  0  0  0  0  0  0  0
   -2.9229   -0.1782    0.0620 H   0  0  0  0  0  0  0  0  0  0  0  0
   -2.6690    2.0328   -0.5269 H   0  0  0  0  0  0  0  0  0  0  0  0
   -1.2168    2.8493    0.1987 H   0  0  0  0  0  0  0  0  0  0  0  0
   -1.2138    2.3817   -1.5582 H   0  0  0  0  0  0  0  0  0  0  0  0
   -1.6011   -3.6103    0.9783 H   0  0  0  0  0  0  0  0  0  0  0  0
   -2.8507   -2.4512    1.6086 H   0  0  0  0  0  0  0  0  0  0  0  0
   -2.8487   -2.9192   -0.1482 H   0  0  0  0  0  0  0  0  0  0  0  0
  1  2  1  0      
  1 12  1  0      
  1 13  1  0      
  1 14  1  0      
  2  3  1  0      
  3  4  1  0      
  3  9  2  0      
  4  5  1  0      
  4  6  2  0      
  5 15  1  0      
  5 16  1  0      
  5 17  1  0      
  6  7  1  0      
  6 18  1  0      
  7  8  2  0      
  7 11  1  0      
  8  9  1  0      
  8 19  1  0      
  9 10  1  0      
 10 20  1  0      
 10 21  1  0      
 10 22  1  0      
 11 23  1  0      
 11 24  1  0      
 11 25  1  0      
M  END
$$$$
