Fragment
  Chem3D Core 21.007272619313D

 66 66  0  0  0  0  0  0  0  0999 V2000
   -3.2673   12.2265   -3.2596 C   0  0  0  0  0  0  0  0  0  0  0  0
   -2.8007   10.9492   -2.9185 O   0  0  0  0  0  0  0  0  0  0  0  0
   -1.4002   11.0121   -2.9331 C   0  0  0  0  0  0  0  0  0  0  0  0
   -0.8262    9.6492   -2.5690 C   0  0  0  0  0  0  0  0  0  0  0  0
    0.6952    9.7176   -2.5849 C   0  0  0  0  0  0  0  0  0  0  0  0
    1.2691    8.3547   -2.2208 C   0  0  0  0  0  0  0  0  0  0  0  0
    2.6696    8.4176   -2.2355 O   0  0  0  0  0  0  0  0  0  0  0  0
    3.1825    7.2237   -1.9165 C   0  0  0  0  0  0  0  0  0  0  0  0
    4.3803    7.0726   -1.8744 O   0  0  0  0  0  0  0  0  0  0  0  0
    2.2648    6.0659   -1.6094 C   0  0  0  0  0  0  0  0  0  0  0  0
    3.0951    4.8326   -1.2794 C   0  0  0  0  0  0  0  0  0  0  0  0
    2.1688    3.6641   -0.9694 C   0  0  0  0  0  0  0  0  0  0  0  0
    2.9992    2.4307   -0.6395 C   0  0  0  0  0  0  0  0  0  0  0  0
    2.0814    1.2730   -0.3323 C   0  0  0  0  0  0  0  0  0  0  0  0
    0.8836    1.4241   -0.3744 O   0  0  0  0  0  0  0  0  0  0  0  0
    2.5943    0.0790   -0.0133 O   0  0  0  0  0  0  0  0  0  0  0  0
    1.5597   -0.8355    0.2288 C   0  0  0  0  0  0  0  0  0  0  0  0
    2.1533   -2.1906    0.5908 C   0  0  0  0  0  0  0  0  0  0  0  0
    1.0293   -3.1841    0.8539 C   0  0  0  0  0  0  0  0  0  0  0  0
    1.6229   -4.5391    1.2159 C   0  0  0  0  0  0  0  0  0  0  0  0
    0.5883   -5.4537    1.4581 O   0  0  0  0  0  0  0  0  0  0  0  0
    1.1012   -6.6476    1.7771 C   0  0  0  0  0  0  0  0  0  0  0  0
    2.2989   -6.7987    1.8191 O   0  0  0  0  0  0  0  0  0  0  0  0
    0.2795   -7.6841    2.0521 C   0  0  0  0  0  0  0  0  0  0  0  0
    0.8142   -8.9287    2.3846 C   0  0  0  0  0  0  0  0  0  0  0  0
   -0.0342   -9.9989    2.6684 C   0  0  0  0  0  0  0  0  0  0  0  0
   -1.4172   -9.8244    2.6198 C   0  0  0  0  0  0  0  0  0  0  0  0
   -1.9519   -8.5798    2.2874 C   0  0  0  0  0  0  0  0  0  0  0  0
   -1.1035   -7.5096    2.0035 C   0  0  0  0  0  0  0  0  0  0  0  0
   -2.2389  -10.8610    2.8947 C   0  0  0  0  0  0  0  0  0  0  0  0
   -3.4367  -10.7099    2.8526 O   0  0  0  0  0  0  0  0  0  0  0  0
   -1.6605  -12.2075    3.2543 C   0  0  0  0  0  0  0  0  0  0  0  0
   -4.3803   12.2272   -3.2614 H   0  0  0  0  0  0  0  0  0  0  0  0
   -2.8976   12.9669   -2.5153 H   0  0  0  0  0  0  0  0  0  0  0  0
   -2.8946   12.4993   -4.2722 H   0  0  0  0  0  0  0  0  0  0  0  0
   -1.0529   11.3006   -3.9504 H   0  0  0  0  0  0  0  0  0  0  0  0
   -1.0553   11.7693   -2.1938 H   0  0  0  0  0  0  0  0  0  0  0  0
   -1.1735    9.3608   -1.5517 H   0  0  0  0  0  0  0  0  0  0  0  0
   -1.1712    8.8921   -3.3083 H   0  0  0  0  0  0  0  0  0  0  0  0
    1.0424   10.0060   -3.6023 H   0  0  0  0  0  0  0  0  0  0  0  0
    1.0401   10.4747   -1.8457 H   0  0  0  0  0  0  0  0  0  0  0  0
    0.9219    8.0662   -1.2035 H   0  0  0  0  0  0  0  0  0  0  0  0
    0.9242    7.5975   -2.9601 H   0  0  0  0  0  0  0  0  0  0  0  0
    1.6220    6.3237   -0.7381 H   0  0  0  0  0  0  0  0  0  0  0  0
    1.6240    5.8556   -2.4948 H   0  0  0  0  0  0  0  0  0  0  0  0
    3.7379    4.5747   -2.1507 H   0  0  0  0  0  0  0  0  0  0  0  0
    3.7358    5.0429   -0.3940 H   0  0  0  0  0  0  0  0  0  0  0  0
    1.5261    3.9219   -0.0981 H   0  0  0  0  0  0  0  0  0  0  0  0
    1.5281    3.4537   -1.8549 H   0  0  0  0  0  0  0  0  0  0  0  0
    3.6419    2.1729   -1.5108 H   0  0  0  0  0  0  0  0  0  0  0  0
    3.6399    2.6410    0.2460 H   0  0  0  0  0  0  0  0  0  0  0  0
    0.9312   -0.4694    1.0713 H   0  0  0  0  0  0  0  0  0  0  0  0
    0.9332   -0.9374   -0.6855 H   0  0  0  0  0  0  0  0  0  0  0  0
    2.7817   -2.5567   -0.2516 H   0  0  0  0  0  0  0  0  0  0  0  0
    2.7797   -2.0887    1.5052 H   0  0  0  0  0  0  0  0  0  0  0  0
    0.4009   -2.8179    1.6964 H   0  0  0  0  0  0  0  0  0  0  0  0
    0.4029   -3.2860   -0.0604 H   0  0  0  0  0  0  0  0  0  0  0  0
    2.2514   -4.9052    0.3735 H   0  0  0  0  0  0  0  0  0  0  0  0
    2.2493   -4.4372    2.1303 H   0  0  0  0  0  0  0  0  0  0  0  0
    1.9049   -9.0663    2.4230 H   0  0  0  0  0  0  0  0  0  0  0  0
    0.3874  -10.9805    2.9305 H   0  0  0  0  0  0  0  0  0  0  0  0
   -3.0426   -8.4422    2.2491 H   0  0  0  0  0  0  0  0  0  0  0  0
   -1.5252   -6.5281    1.7412 H   0  0  0  0  0  0  0  0  0  0  0  0
   -0.5490  -12.1501    3.2407 H   0  0  0  0  0  0  0  0  0  0  0  0
   -2.0039  -12.4984    4.2722 H   0  0  0  0  0  0  0  0  0  0  0  0
   -2.0016  -12.9669    2.5156 H   0  0  0  0  0  0  0  0  0  0  0  0
  1  2  1  0      
  1 33  1  0      
  1 34  1  0      
  1 35  1  0      
  2  3  1  0      
  3  4  1  0      
  3 36  1  0      
  3 37  1  0      
  4  5  1  0      
  4 38  1  0      
  4 39  1  0      
  5  6  1  0      
  5 40  1  0      
  5 41  1  0      
  6  7  1  0      
  6 42  1  0      
  6 43  1  0      
  7  8  1  0      
  8  9  2  0      
  8 10  1  0      
 10 11  1  0      
 10 44  1  0      
 10 45  1  0      
 11 12  1  0      
 11 46  1  0      
 11 47  1  0      
 12 13  1  0      
 12 48  1  0      
 12 49  1  0      
 13 14  1  0      
 13 50  1  0      
 13 51  1  0      
 14 15  2  0      
 14 16  1  0      
 16 17  1  0      
 17 18  1  0      
 17 52  1  0      
 17 53  1  0      
 18 19  1  0      
 18 54  1  0      
 18 55  1  0      
 19 20  1  0      
 19 56  1  0      
 19 57  1  0      
 20 21  1  0      
 20 58  1  0      
 20 59  1  0      
 21 22  1  0      
 22 23  2  0      
 22 24  1  0      
 24 25  1  0      
 24 29  2  0      
 25 26  2  0      
 25 60  1  0      
 26 27  1  0      
 26 61  1  0      
 27 28  2  0      
 27 30  1  0      
 28 29  1  0      
 28 62  1  0      
 29 63  1  0      
 30 31  2  0      
 30 32  1  0      
 32 64  1  0      
 32 65  1  0      
 32 66  1  0      
M  END
$$$$
