Fragment
  Chem3D Core 21.007272619293D

 36 36  0  0  0  0  0  0  0  0999 V2000
    2.3151    6.7522   -1.8524 C   0  0  0  0  0  0  0  0  0  0  0  0
    2.9218    5.5311   -1.5261 O   0  0  0  0  0  0  0  0  0  0  0  0
    1.8871    4.6166   -1.2839 C   0  0  0  0  0  0  0  0  0  0  0  0
    2.4807    3.2615   -0.9219 C   0  0  0  0  0  0  0  0  0  0  0  0
    1.3568    2.2680   -0.6588 C   0  0  0  0  0  0  0  0  0  0  0  0
    1.9504    0.9130   -0.2968 C   0  0  0  0  0  0  0  0  0  0  0  0
    0.9158   -0.0016   -0.0546 O   0  0  0  0  0  0  0  0  0  0  0  0
    1.4286   -1.1955    0.2643 C   0  0  0  0  0  0  0  0  0  0  0  0
    2.6264   -1.3466    0.3064 O   0  0  0  0  0  0  0  0  0  0  0  0
    0.6070   -2.2320    0.5393 C   0  0  0  0  0  0  0  0  0  0  0  0
    1.1417   -3.4766    0.8718 C   0  0  0  0  0  0  0  0  0  0  0  0
    0.2933   -4.5468    1.1556 C   0  0  0  0  0  0  0  0  0  0  0  0
   -1.0897   -4.3723    1.1070 C   0  0  0  0  0  0  0  0  0  0  0  0
   -1.6244   -3.1277    0.7746 C   0  0  0  0  0  0  0  0  0  0  0  0
   -0.7760   -2.0575    0.4907 C   0  0  0  0  0  0  0  0  0  0  0  0
   -1.9114   -5.4089    1.3819 C   0  0  0  0  0  0  0  0  0  0  0  0
   -3.1092   -5.2578    1.3399 O   0  0  0  0  0  0  0  0  0  0  0  0
   -1.3330   -6.7554    1.7416 C   0  0  0  0  0  0  0  0  0  0  0  0
    3.1002    7.5148   -2.0545 H   0  0  0  0  0  0  0  0  0  0  0  0
    1.6836    6.6214   -2.7595 H   0  0  0  0  0  0  0  0  0  0  0  0
    1.6803    7.0897   -1.0028 H   0  0  0  0  0  0  0  0  0  0  0  0
    1.2587    4.9827   -0.4414 H   0  0  0  0  0  0  0  0  0  0  0  0
    1.2607    4.5147   -2.1982 H   0  0  0  0  0  0  0  0  0  0  0  0
    3.1092    2.8954   -1.7643 H   0  0  0  0  0  0  0  0  0  0  0  0
    3.1072    3.3634   -0.0076 H   0  0  0  0  0  0  0  0  0  0  0  0
    0.7283    2.6342    0.1836 H   0  0  0  0  0  0  0  0  0  0  0  0
    0.7304    2.1661   -1.5731 H   0  0  0  0  0  0  0  0  0  0  0  0
    2.5789    0.5468   -1.1393 H   0  0  0  0  0  0  0  0  0  0  0  0
    2.5768    1.0149    0.6175 H   0  0  0  0  0  0  0  0  0  0  0  0
    2.2323   -3.6142    0.9102 H   0  0  0  0  0  0  0  0  0  0  0  0
    0.7149   -5.5284    1.4178 H   0  0  0  0  0  0  0  0  0  0  0  0
   -2.7151   -2.9901    0.7364 H   0  0  0  0  0  0  0  0  0  0  0  0
   -1.1977   -1.0760    0.2285 H   0  0  0  0  0  0  0  0  0  0  0  0
   -0.2216   -6.6980    1.7279 H   0  0  0  0  0  0  0  0  0  0  0  0
   -1.6765   -7.0463    2.7595 H   0  0  0  0  0  0  0  0  0  0  0  0
   -1.6741   -7.5148    1.0028 H   0  0  0  0  0  0  0  0  0  0  0  0
  1  2  1  0      
  1 19  1  0      
  1 20  1  0      
  1 21  1  0      
  2  3  1  0      
  3  4  1  0      
  3 22  1  0      
  3 23  1  0      
  4  5  1  0      
  4 24  1  0      
  4 25  1  0      
  5  6  1  0      
  5 26  1  0      
  5 27  1  0      
  6  7  1  0      
  6 28  1  0      
  6 29  1  0      
  7  8  1  0      
  8  9  2  0      
  8 10  1  0      
 10 11  1  0      
 10 15  2  0      
 11 12  2  0      
 11 30  1  0      
 12 13  1  0      
 12 31  1  0      
 13 14  2  0      
 13 16  1  0      
 14 15  1  0      
 14 32  1  0      
 15 33  1  0      
 16 17  2  0      
 16 18  1  0      
 18 34  1  0      
 18 35  1  0      
 18 36  1  0      
M  END
$$$$
