Fragment
  Chem3D Core 21.007272619283D

 38 37  0  0  0  0  0  0  0  0999 V2000
    3.6571    0.1398   -1.7437 C   0  0  0  0  0  0  0  0  0  0  0  0
    2.3381   -0.6216   -1.7437 C   0  0  0  0  0  0  0  0  0  0  0  0
    1.1800    0.3675   -1.7437 C   0  0  0  0  0  0  0  0  0  0  0  0
    1.2583    1.2285   -2.9657 C   0  0  0  0  0  0  0  0  0  0  0  0
    0.3378    2.1750   -3.1767 C   0  0  0  0  0  0  0  0  0  0  0  0
   -0.1382   -0.3953   -1.7446 C   0  0  0  0  0  0  0  0  0  0  0  0
   -0.9382   -0.0293   -0.5014 C   0  0  0  0  0  0  0  0  0  0  0  0
   -1.2140    1.4421   -0.5000 C   0  0  0  0  0  0  0  0  0  0  0  0
   -1.9069    1.9914    0.5029 C   0  0  0  0  0  0  0  0  0  0  0  0
   -2.2564   -0.7921   -0.5041 C   0  0  0  0  0  0  0  0  0  0  0  0
   -2.3386   -1.6695    0.7380 C   0  0  0  0  0  0  0  0  0  0  0  0
   -2.2621   -0.8112    1.9621 C   0  0  0  0  0  0  0  0  0  0  0  0
   -2.3151   -1.3707    3.1752 C   0  0  0  0  0  0  0  0  0  0  0  0
   -3.6576   -2.4310    0.7344 C   0  0  0  0  0  0  0  0  0  0  0  0
    4.5034   -0.5830   -1.7437 H   0  0  0  0  0  0  0  0  0  0  0  0
    3.7158    0.7790   -2.6529 H   0  0  0  0  0  0  0  0  0  0  0  0
    3.7159    0.7797   -0.8348 H   0  0  0  0  0  0  0  0  0  0  0  0
    2.2794   -1.2608   -0.8344 H   0  0  0  0  0  0  0  0  0  0  0  0
    2.2793   -1.2615   -2.6525 H   0  0  0  0  0  0  0  0  0  0  0  0
    1.2388    1.0073   -0.8348 H   0  0  0  0  0  0  0  0  0  0  0  0
    2.0731    1.0826   -3.6901 H   0  0  0  0  0  0  0  0  0  0  0  0
    0.3953    2.8077   -4.0747 H   0  0  0  0  0  0  0  0  0  0  0  0
   -0.4771    2.3209   -2.4524 H   0  0  0  0  0  0  0  0  0  0  0  0
   -0.7216   -0.1257   -2.6533 H   0  0  0  0  0  0  0  0  0  0  0  0
    0.0665   -1.4893   -1.7450 H   0  0  0  0  0  0  0  0  0  0  0  0
   -0.3549   -0.2981    0.4075 H   0  0  0  0  0  0  0  0  0  0  0  0
   -0.8466    2.0714   -1.3240 H   0  0  0  0  0  0  0  0  0  0  0  0
   -2.1095    3.0726    0.5040 H   0  0  0  0  0  0  0  0  0  0  0  0
   -2.2743    1.3622    1.3269 H   0  0  0  0  0  0  0  0  0  0  0  0
   -3.1028   -0.0692   -0.5037 H   0  0  0  0  0  0  0  0  0  0  0  0
   -2.3134   -1.4308   -1.4138 H   0  0  0  0  0  0  0  0  0  0  0  0
   -1.4920   -2.3921    0.7382 H   0  0  0  0  0  0  0  0  0  0  0  0
   -2.1622    0.2798    1.8635 H   0  0  0  0  0  0  0  0  0  0  0  0
   -2.2589   -0.7400    4.0747 H   0  0  0  0  0  0  0  0  0  0  0  0
   -2.4150   -2.4617    3.2738 H   0  0  0  0  0  0  0  0  0  0  0  0
   -3.7186   -3.0726    1.6418 H   0  0  0  0  0  0  0  0  0  0  0  0
   -3.7142   -3.0696   -0.1754 H   0  0  0  0  0  0  0  0  0  0  0  0
   -4.5034   -1.7075    0.7342 H   0  0  0  0  0  0  0  0  0  0  0  0
  1  2  1  0      
  1 15  1  0      
  1 16  1  0      
  1 17  1  0      
  2  3  1  0      
  2 18  1  0      
  2 19  1  0      
  3  4  1  0      
  3  6  1  0      
  3 20  1  0      
  4  5  2  0      
  4 21  1  0      
  5 22  1  0      
  5 23  1  0      
  6  7  1  0      
  6 24  1  0      
  6 25  1  0      
  7  8  1  0      
  7 10  1  0      
  7 26  1  0      
  8  9  2  0      
  8 27  1  0      
  9 28  1  0      
  9 29  1  0      
 10 11  1  0      
 10 30  1  0      
 10 31  1  0      
 11 12  1  0      
 11 14  1  0      
 11 32  1  0      
 12 13  2  0      
 12 33  1  0      
 13 34  1  0      
 13 35  1  0      
 14 36  1  0      
 14 37  1  0      
 14 38  1  0      
M  END
$$$$
