Fragment
  Chem3D Core 21.007272619293D

 44 43  0  0  0  0  0  0  0  0999 V2000
   -0.4911    5.1340   -1.8671 C   0  0  0  0  0  0  0  0  0  0  0  0
    0.7230    4.4329   -1.8671 O   0  0  0  0  0  0  0  0  0  0  0  0
    0.4027    3.0680   -1.8671 C   0  0  0  0  0  0  0  0  0  0  0  0
   -0.4122    2.7370   -3.1104 C   0  0  0  0  0  0  0  0  0  0  0  0
    1.6851    2.2464   -1.8680 C   0  0  0  0  0  0  0  0  0  0  0  0
    1.7263    1.3756   -0.6363 C   0  0  0  0  0  0  0  0  0  0  0  0
    2.6672    0.6421   -0.4464 O   0  0  0  0  0  0  0  0  0  0  0  0
    0.7208    1.4159    0.2454 O   0  0  0  0  0  0  0  0  0  0  0  0
    0.9757    0.5289    1.3008 C   0  0  0  0  0  0  0  0  0  0  0  0
    2.2704    0.9265    1.9975 C   0  0  0  0  0  0  0  0  0  0  0  0
   -0.1741    0.5838    2.2981 C   0  0  0  0  0  0  0  0  0  0  0  0
   -0.8043   -0.7823    2.4159 C   0  0  0  0  0  0  0  0  0  0  0  0
   -1.7396   -0.9537    3.1609 O   0  0  0  0  0  0  0  0  0  0  0  0
   -0.3270   -1.8036    1.6953 O   0  0  0  0  0  0  0  0  0  0  0  0
   -1.0639   -2.9649    1.9671 C   0  0  0  0  0  0  0  0  0  0  0  0
   -2.5256   -2.7356    1.6059 C   0  0  0  0  0  0  0  0  0  0  0  0
   -0.5128   -4.1199    1.1413 C   0  0  0  0  0  0  0  0  0  0  0  0
   -0.0391   -5.2169    2.0629 C   0  0  0  0  0  0  0  0  0  0  0  0
    0.4357   -6.2283    1.6037 O   0  0  0  0  0  0  0  0  0  0  0  0
   -0.1587   -5.0506    3.5579 C   0  0  0  0  0  0  0  0  0  0  0  0
   -0.2882    6.2283   -1.8671 H   0  0  0  0  0  0  0  0  0  0  0  0
   -1.0740    4.8653   -2.7764 H   0  0  0  0  0  0  0  0  0  0  0  0
   -1.0746    4.8651   -0.9583 H   0  0  0  0  0  0  0  0  0  0  0  0
   -0.1928    2.8268   -0.9583 H   0  0  0  0  0  0  0  0  0  0  0  0
   -0.6665    1.6534   -3.1104 H   0  0  0  0  0  0  0  0  0  0  0  0
   -1.3494    3.3374   -3.1098 H   0  0  0  0  0  0  0  0  0  0  0  0
    0.1833    2.9782   -4.0192 H   0  0  0  0  0  0  0  0  0  0  0  0
    1.7131    1.6043   -2.7767 H   0  0  0  0  0  0  0  0  0  0  0  0
    2.5635    2.9299   -1.8685 H   0  0  0  0  0  0  0  0  0  0  0  0
    1.0722   -0.5053    0.9010 H   0  0  0  0  0  0  0  0  0  0  0  0
    2.4728    0.2223    2.8354 H   0  0  0  0  0  0  0  0  0  0  0  0
    3.1107    0.8864    1.2688 H   0  0  0  0  0  0  0  0  0  0  0  0
    2.1739    1.9607    2.3974 H   0  0  0  0  0  0  0  0  0  0  0  0
    0.2128    0.9003    3.2925 H   0  0  0  0  0  0  0  0  0  0  0  0
   -0.9361    1.3145    1.9457 H   0  0  0  0  0  0  0  0  0  0  0  0
   -0.9836   -3.2102    3.0498 H   0  0  0  0  0  0  0  0  0  0  0  0
   -3.1107   -3.6575    1.8217 H   0  0  0  0  0  0  0  0  0  0  0  0
   -2.9283   -1.8916    2.2094 H   0  0  0  0  0  0  0  0  0  0  0  0
   -2.6060   -2.4903    0.5233 H   0  0  0  0  0  0  0  0  0  0  0  0
   -1.3131   -4.5146    0.4761 H   0  0  0  0  0  0  0  0  0  0  0  0
    0.3403   -3.7602    0.5237 H   0  0  0  0  0  0  0  0  0  0  0  0
   -0.6164   -4.0621    3.7863 H   0  0  0  0  0  0  0  0  0  0  0  0
   -0.8009   -5.8604    3.9706 H   0  0  0  0  0  0  0  0  0  0  0  0
    0.8527   -5.1064    4.0192 H   0  0  0  0  0  0  0  0  0  0  0  0
  1  2  1  0      
  1 21  1  0      
  1 22  1  0      
  1 23  1  0      
  2  3  1  0      
  3  4  1  0      
  3  5  1  0      
  3 24  1  0      
  4 25  1  0      
  4 26  1  0      
  4 27  1  0      
  5  6  1  0      
  5 28  1  0      
  5 29  1  0      
  6  7  2  0      
  6  8  1  0      
  8  9  1  0      
  9 10  1  0      
  9 11  1  0      
  9 30  1  0      
 10 31  1  0      
 10 32  1  0      
 10 33  1  0      
 11 12  1  0      
 11 34  1  0      
 11 35  1  0      
 12 13  2  0      
 12 14  1  0      
 14 15  1  0      
 15 16  1  0      
 15 17  1  0      
 15 36  1  0      
 16 37  1  0      
 16 38  1  0      
 16 39  1  0      
 17 18  1  0      
 17 40  1  0      
 17 41  1  0      
 18 19  2  0      
 18 20  1  0      
 20 42  1  0      
 20 43  1  0      
 20 44  1  0      
M  END
$$$$
