Fragment
  Chem3D Core 21.007272619273D

 56 58  0  0  0  0  0  0  0  0999 V2000
    4.0030   -1.3621   -0.8832 C   0  0  0  0  0  0  0  0  0  0  0  0
    3.2962   -1.5506    0.4526 C   0  0  0  0  0  0  0  0  0  0  0  0
    1.8474   -1.0974    0.3296 C   0  0  0  0  0  0  0  0  0  0  0  0
    0.9370   -2.2459    0.6343 C   0  0  0  0  0  0  0  0  0  0  0  0
    1.4717   -3.4905    0.9668 C   0  0  0  0  0  0  0  0  0  0  0  0
    0.6233   -4.5607    1.2506 C   0  0  0  0  0  0  0  0  0  0  0  0
   -0.7597   -4.3862    1.2020 C   0  0  0  0  0  0  0  0  0  0  0  0
   -1.2944   -3.1416    0.8696 C   0  0  0  0  0  0  0  0  0  0  0  0
   -0.4460   -2.0714    0.5857 C   0  0  0  0  0  0  0  0  0  0  0  0
    1.5846    0.0333    1.3155 C   0  0  0  0  0  0  0  0  0  0  0  0
    1.1495    1.2795    0.5557 C   0  0  0  0  0  0  0  0  0  0  0  0
    0.8906    2.3897    1.5260 C   0  0  0  0  0  0  0  0  0  0  0  0
    1.6227    3.5740    1.4422 C   0  0  0  0  0  0  0  0  0  0  0  0
    1.3815    4.6083    2.3464 C   0  0  0  0  0  0  0  0  0  0  0  0
    0.4082    4.4584    3.3342 C   0  0  0  0  0  0  0  0  0  0  0  0
   -0.3239    3.2742    3.4180 C   0  0  0  0  0  0  0  0  0  0  0  0
   -0.0827    2.2397    2.5138 C   0  0  0  0  0  0  0  0  0  0  0  0
   -0.1241    0.9806   -0.2242 C   0  0  0  0  0  0  0  0  0  0  0  0
   -0.5592    2.2268   -0.9840 C   0  0  0  0  0  0  0  0  0  0  0  0
   -1.8105    1.9313   -1.7508 C   0  0  0  0  0  0  0  0  0  0  0  0
   -2.9724    2.6601   -1.4970 C   0  0  0  0  0  0  0  0  0  0  0  0
   -4.1383    2.3847   -2.2114 C   0  0  0  0  0  0  0  0  0  0  0  0
   -4.1423    1.3806   -3.1796 C   0  0  0  0  0  0  0  0  0  0  0  0
   -2.9804    0.6519   -3.4334 C   0  0  0  0  0  0  0  0  0  0  0  0
   -1.8145    0.9272   -2.7189 C   0  0  0  0  0  0  0  0  0  0  0  0
    0.5415    2.6429   -1.9509 C   0  0  0  0  0  0  0  0  0  0  0  0
    5.0618   -1.6934   -0.7934 H   0  0  0  0  0  0  0  0  0  0  0  0
    3.4899   -1.9688   -1.6627 H   0  0  0  0  0  0  0  0  0  0  0  0
    3.9738   -0.2871   -1.1698 H   0  0  0  0  0  0  0  0  0  0  0  0
    3.8093   -0.9439    1.2320 H   0  0  0  0  0  0  0  0  0  0  0  0
    3.3254   -2.6257    0.7392 H   0  0  0  0  0  0  0  0  0  0  0  0
    1.6578   -0.7387   -0.7068 H   0  0  0  0  0  0  0  0  0  0  0  0
    2.5623   -3.6281    1.0052 H   0  0  0  0  0  0  0  0  0  0  0  0
    1.0449   -5.5423    1.5128 H   0  0  0  0  0  0  0  0  0  0  0  0
   -1.4288   -5.2302    1.4259 H   0  0  0  0  0  0  0  0  0  0  0  0
   -2.3851   -3.0040    0.8314 H   0  0  0  0  0  0  0  0  0  0  0  0
   -0.8677   -1.0898    0.3235 H   0  0  0  0  0  0  0  0  0  0  0  0
    0.7793   -0.2703    2.0213 H   0  0  0  0  0  0  0  0  0  0  0  0
    2.5153    0.2524    1.8852 H   0  0  0  0  0  0  0  0  0  0  0  0
    1.9543    1.5830   -0.1506 H   0  0  0  0  0  0  0  0  0  0  0  0
    2.3901    3.6922    0.6631 H   0  0  0  0  0  0  0  0  0  0  0  0
    1.9589    5.5423    2.2804 H   0  0  0  0  0  0  0  0  0  0  0  0
    0.2181    5.2741    4.0473 H   0  0  0  0  0  0  0  0  0  0  0  0
   -1.0915    3.1560    4.1970 H   0  0  0  0  0  0  0  0  0  0  0  0
   -0.6600    1.3058    2.5799 H   0  0  0  0  0  0  0  0  0  0  0  0
    0.0684    0.1552   -0.9456 H   0  0  0  0  0  0  0  0  0  0  0  0
   -0.9289    0.6771    0.4822 H   0  0  0  0  0  0  0  0  0  0  0  0
   -0.7511    3.0526   -0.2629 H   0  0  0  0  0  0  0  0  0  0  0  0
   -2.9692    3.4520   -0.7336 H   0  0  0  0  0  0  0  0  0  0  0  0
   -5.0547    2.9593   -2.0113 H   0  0  0  0  0  0  0  0  0  0  0  0
   -5.0618    1.1635   -3.7430 H   0  0  0  0  0  0  0  0  0  0  0  0
   -2.9836   -0.1399   -4.1970 H   0  0  0  0  0  0  0  0  0  0  0  0
   -0.8981    0.3525   -2.9190 H   0  0  0  0  0  0  0  0  0  0  0  0
    0.2235    3.5536   -2.5061 H   0  0  0  0  0  0  0  0  0  0  0  0
    1.4718    2.8626   -1.3808 H   0  0  0  0  0  0  0  0  0  0  0  0
    0.7334    1.8171   -2.6719 H   0  0  0  0  0  0  0  0  0  0  0  0
  1  2  1  0      
  1 27  1  0      
  1 28  1  0      
  1 29  1  0      
  2  3  1  0      
  2 30  1  0      
  2 31  1  0      
  3  4  1  0      
  3 10  1  0      
  3 32  1  0      
  4  5  1  0      
  4  9  2  0      
  5  6  2  0      
  5 33  1  0      
  6  7  1  0      
  6 34  1  0      
  7  8  2  0      
  7 35  1  0      
  8  9  1  0      
  8 36  1  0      
  9 37  1  0      
 10 11  1  0      
 10 38  1  0      
 10 39  1  0      
 11 12  1  0      
 11 18  1  0      
 11 40  1  0      
 12 13  1  0      
 12 17  2  0      
 13 14  2  0      
 13 41  1  0      
 14 15  1  0      
 14 42  1  0      
 15 16  2  0      
 15 43  1  0      
 16 17  1  0      
 16 44  1  0      
 17 45  1  0      
 18 19  1  0      
 18 46  1  0      
 18 47  1  0      
 19 20  1  0      
 19 26  1  0      
 19 48  1  0      
 20 21  1  0      
 20 25  2  0      
 21 22  2  0      
 21 49  1  0      
 22 23  1  0      
 22 50  1  0      
 23 24  2  0      
 23 51  1  0      
 24 25  1  0      
 24 52  1  0      
 25 53  1  0      
 26 54  1  0      
 26 55  1  0      
 26 56  1  0      
M  END
$$$$
