Fragment
  Chem3D Core 21.007272619273D

 15 14  0  0  0  0  0  0  0  0999 V2000
    1.8980   -0.1689    0.6181 C   0  0  0  0  0  0  0  0  0  0  0  0
    0.5790   -0.9304    0.6181 C   0  0  0  0  0  0  0  0  0  0  0  0
   -0.5791    0.0586    0.6181 C   0  0  0  0  0  0  0  0  0  0  0  0
   -0.5023    0.9042   -0.5820 C   0  0  0  0  0  0  0  0  0  0  0  0
   -0.4418    1.5702   -1.5273 N   0  0  0  0  0  0  0  0  0  0  0  0
   -1.8972   -0.7042    0.6171 C   0  0  0  0  0  0  0  0  0  0  0  0
    2.7443   -0.8917    0.6181 H   0  0  0  0  0  0  0  0  0  0  0  0
    1.9567    0.4703   -0.2912 H   0  0  0  0  0  0  0  0  0  0  0  0
    1.9567    0.4710    1.5269 H   0  0  0  0  0  0  0  0  0  0  0  0
    0.5203   -1.5696    1.5273 H   0  0  0  0  0  0  0  0  0  0  0  0
    0.5203   -1.5702   -0.2908 H   0  0  0  0  0  0  0  0  0  0  0  0
   -0.5203    0.6985    1.5269 H   0  0  0  0  0  0  0  0  0  0  0  0
   -2.7443    0.0177    0.6171 H   0  0  0  0  0  0  0  0  0  0  0  0
   -1.9557   -1.3439    1.5261 H   0  0  0  0  0  0  0  0  0  0  0  0
   -1.9550   -1.3437   -0.2920 H   0  0  0  0  0  0  0  0  0  0  0  0
  1  2  1  0      
  1  7  1  0      
  1  8  1  0      
  1  9  1  0      
  2  3  1  0      
  2 10  1  0      
  2 11  1  0      
  3  4  1  0      
  3  6  1  0      
  3 12  1  0      
  4  5  3  0      
  6 13  1  0      
  6 14  1  0      
  6 15  1  0      
M  END
$$$$
