Fragment
  Chem3D Core 21.007272619303D

 29 29  0  0  0  0  0  0  0  0999 V2000
   -2.4838   -0.2815   -1.7455 C   0  0  0  0  0  0  0  0  0  0  0  0
   -1.7192   -1.1690   -0.9752 O   0  0  0  0  0  0  0  0  0  0  0  0
   -1.5255   -0.5595    0.2724 C   0  0  0  0  0  0  0  0  0  0  0  0
   -0.6958   -1.4841    1.1570 C   0  0  0  0  0  0  0  0  0  0  0  0
   -0.6829   -0.9803    2.4652 O   0  0  0  0  0  0  0  0  0  0  0  0
    0.7365   -1.5761    0.6416 C   0  0  0  0  0  0  0  0  0  0  0  0
    0.7437   -2.2759   -0.5733 O   0  0  0  0  0  0  0  0  0  0  0  0
    1.3204   -0.1866    0.4209 C   0  0  0  0  0  0  0  0  0  0  0  0
    0.4937    0.5760   -0.4582 O   0  0  0  0  0  0  0  0  0  0  0  0
   -0.8170    0.7739    0.0720 C   0  0  0  0  0  0  0  0  0  0  0  0
   -0.7103    1.4887    1.4126 C   0  0  0  0  0  0  0  0  0  0  0  0
   -0.0590    2.7177    1.2371 O   0  0  0  0  0  0  0  0  0  0  0  0
    2.7089   -0.3202   -0.1905 C   0  0  0  0  0  0  0  0  0  0  0  0
   -2.6651   -0.7233   -2.7509 H   0  0  0  0  0  0  0  0  0  0  0  0
   -3.4584   -0.0975   -1.2405 H   0  0  0  0  0  0  0  0  0  0  0  0
   -1.9351    0.6805   -1.8566 H   0  0  0  0  0  0  0  0  0  0  0  0
   -2.5043   -0.3734    0.7684 H   0  0  0  0  0  0  0  0  0  0  0  0
   -1.1497   -2.5002    1.1400 H   0  0  0  0  0  0  0  0  0  0  0  0
   -1.5795   -0.9369    2.7509 H   0  0  0  0  0  0  0  0  0  0  0  0
    1.3554   -2.1081    1.3983 H   0  0  0  0  0  0  0  0  0  0  0  0
    0.3778   -3.1267   -0.4014 H   0  0  0  0  0  0  0  0  0  0  0  0
    1.3774    0.3368    1.4015 H   0  0  0  0  0  0  0  0  0  0  0  0
   -1.4049    1.3862   -0.6479 H   0  0  0  0  0  0  0  0  0  0  0  0
   -0.1287    0.8592    2.1227 H   0  0  0  0  0  0  0  0  0  0  0  0
   -1.7305    1.6646    1.8213 H   0  0  0  0  0  0  0  0  0  0  0  0
   -0.0130    3.1267    2.0844 H   0  0  0  0  0  0  0  0  0  0  0  0
    2.9536   -1.3976   -0.3247 H   0  0  0  0  0  0  0  0  0  0  0  0
    2.7290    0.1903   -1.1793 H   0  0  0  0  0  0  0  0  0  0  0  0
    3.4584    0.1489    0.4855 H   0  0  0  0  0  0  0  0  0  0  0  0
  1  2  1  0      
  1 14  1  0      
  1 15  1  0      
  1 16  1  0      
  3  2  1  0      
  4  3  1  0      
  3 10  1  0      
  3 17  1  0      
  4  5  1  0      
  6  4  1  0      
  4 18  1  0      
  5 19  1  0      
  6  7  1  0      
  8  6  1  0      
  6 20  1  0      
  7 21  1  0      
  8  9  1  0      
  8 13  1  0      
  8 22  1  0      
 10  9  1  0      
 10 11  1  0      
 10 23  1  0      
 11 12  1  0      
 11 24  1  0      
 11 25  1  0      
 12 26  1  0      
 13 27  1  0      
 13 28  1  0      
 13 29  1  0      
M  END
$$$$
