Fragment
  Chem3D Core 21.007272619303D

 71 73  0  0  0  0  0  0  0  0999 V2000
   -5.9605   -0.2441    0.5886 C   0  0  0  0  0  0  0  0  0  0  0  0
   -5.1959   -1.1317    1.3588 O   0  0  0  0  0  0  0  0  0  0  0  0
   -5.0022   -0.5222    2.6065 C   0  0  0  0  0  0  0  0  0  0  0  0
   -4.1725   -1.4468    3.4911 C   0  0  0  0  0  0  0  0  0  0  0  0
   -4.1596   -0.9429    4.7993 O   0  0  0  0  0  0  0  0  0  0  0  0
   -2.7402   -1.5388    2.9757 C   0  0  0  0  0  0  0  0  0  0  0  0
   -2.7330   -2.2385    1.7608 O   0  0  0  0  0  0  0  0  0  0  0  0
   -2.1563   -0.1493    2.7550 C   0  0  0  0  0  0  0  0  0  0  0  0
   -2.9830    0.6133    1.8759 O   0  0  0  0  0  0  0  0  0  0  0  0
   -4.2937    0.8112    2.4061 C   0  0  0  0  0  0  0  0  0  0  0  0
   -4.1870    1.5260    3.7467 C   0  0  0  0  0  0  0  0  0  0  0  0
   -3.5357    2.7551    3.5712 O   0  0  0  0  0  0  0  0  0  0  0  0
   -0.8781   -0.2722    2.1922 O   0  0  0  0  0  0  0  0  0  0  0  0
   -0.3885    1.0289    2.0105 C   0  0  0  0  0  0  0  0  0  0  0  0
    0.8889    1.2006    2.8257 C   0  0  0  0  0  0  0  0  0  0  0  0
    1.2605    2.5525    2.8201 O   0  0  0  0  0  0  0  0  0  0  0  0
    2.0200    0.3679    2.2316 C   0  0  0  0  0  0  0  0  0  0  0  0
    1.7442   -0.9919    2.4328 O   0  0  0  0  0  0  0  0  0  0  0  0
    2.1580    0.6337    0.7380 C   0  0  0  0  0  0  0  0  0  0  0  0
    0.9216    0.3963    0.0653 O   0  0  0  0  0  0  0  0  0  0  0  0
   -0.1177    1.2581    0.5292 C   0  0  0  0  0  0  0  0  0  0  0  0
    0.3032    2.7064    0.3172 C   0  0  0  0  0  0  0  0  0  0  0  0
    0.5545    2.9262   -1.0444 O   0  0  0  0  0  0  0  0  0  0  0  0
    3.1394   -0.2164    0.2090 O   0  0  0  0  0  0  0  0  0  0  0  0
    3.2260    0.0679   -1.1611 C   0  0  0  0  0  0  0  0  0  0  0  0
    4.6384    0.5435   -1.4846 C   0  0  0  0  0  0  0  0  0  0  0  0
    4.6704    1.0312   -2.7987 O   0  0  0  0  0  0  0  0  0  0  0  0
    5.6340   -0.6041   -1.3521 C   0  0  0  0  0  0  0  0  0  0  0  0
    5.7612   -0.9481    0.0011 O   0  0  0  0  0  0  0  0  0  0  0  0
    5.1601   -1.8221   -2.1345 C   0  0  0  0  0  0  0  0  0  0  0  0
    3.8509   -2.2119   -1.7201 O   0  0  0  0  0  0  0  0  0  0  0  0
    2.8848   -1.1871   -1.9540 C   0  0  0  0  0  0  0  0  0  0  0  0
    2.8654   -0.8493   -3.4389 C   0  0  0  0  0  0  0  0  0  0  0  0
    2.5519   -1.9996   -4.1765 O   0  0  0  0  0  0  0  0  0  0  0  0
    6.1242   -2.9762   -1.8933 C   0  0  0  0  0  0  0  0  0  0  0  0
   -6.1418   -0.6859   -0.4168 H   0  0  0  0  0  0  0  0  0  0  0  0
   -6.9351   -0.0602    1.0936 H   0  0  0  0  0  0  0  0  0  0  0  0
   -5.4118    0.7178    0.4774 H   0  0  0  0  0  0  0  0  0  0  0  0
   -5.9810   -0.3361    3.1025 H   0  0  0  0  0  0  0  0  0  0  0  0
   -4.6264   -2.4629    3.4741 H   0  0  0  0  0  0  0  0  0  0  0  0
   -5.0562   -0.8995    5.0849 H   0  0  0  0  0  0  0  0  0  0  0  0
   -2.1213   -2.0707    3.7324 H   0  0  0  0  0  0  0  0  0  0  0  0
   -3.0989   -3.0894    1.9327 H   0  0  0  0  0  0  0  0  0  0  0  0
   -2.0993    0.3742    3.7355 H   0  0  0  0  0  0  0  0  0  0  0  0
   -4.8816    1.4235    1.6862 H   0  0  0  0  0  0  0  0  0  0  0  0
   -3.6054    0.8966    4.4568 H   0  0  0  0  0  0  0  0  0  0  0  0
   -5.2072    1.7020    4.1553 H   0  0  0  0  0  0  0  0  0  0  0  0
   -3.4897    3.1641    4.4185 H   0  0  0  0  0  0  0  0  0  0  0  0
   -1.1370    1.7761    2.3571 H   0  0  0  0  0  0  0  0  0  0  0  0
    0.6992    0.8576    3.8674 H   0  0  0  0  0  0  0  0  0  0  0  0
    0.5423    3.0354    3.1920 H   0  0  0  0  0  0  0  0  0  0  0  0
    2.9726    0.6482    2.7343 H   0  0  0  0  0  0  0  0  0  0  0  0
    1.6654   -1.1206    3.3626 H   0  0  0  0  0  0  0  0  0  0  0  0
    2.4468    1.6983    0.5898 H   0  0  0  0  0  0  0  0  0  0  0  0
   -1.0469    1.0370   -0.0422 H   0  0  0  0  0  0  0  0  0  0  0  0
    1.2270    2.9131    0.9026 H   0  0  0  0  0  0  0  0  0  0  0  0
   -0.5121    3.3832    0.6578 H   0  0  0  0  0  0  0  0  0  0  0  0
    0.8107    3.8283   -1.1335 H   0  0  0  0  0  0  0  0  0  0  0  0
    2.5064    0.8712   -1.4360 H   0  0  0  0  0  0  0  0  0  0  0  0
    4.9197    1.3476   -0.7683 H   0  0  0  0  0  0  0  0  0  0  0  0
    4.0465    1.7356   -2.8445 H   0  0  0  0  0  0  0  0  0  0  0  0
    6.6153   -0.2754   -1.7618 H   0  0  0  0  0  0  0  0  0  0  0  0
    6.0545   -0.1758    0.4536 H   0  0  0  0  0  0  0  0  0  0  0  0
    5.1298   -1.5622   -3.2163 H   0  0  0  0  0  0  0  0  0  0  0  0
    1.8867   -1.5557   -1.6273 H   0  0  0  0  0  0  0  0  0  0  0  0
    3.8668   -0.4734   -3.7465 H   0  0  0  0  0  0  0  0  0  0  0  0
    2.0989   -0.0654   -3.6309 H   0  0  0  0  0  0  0  0  0  0  0  0
    2.5498   -1.7503   -5.0849 H   0  0  0  0  0  0  0  0  0  0  0  0
    6.9351   -2.6455   -1.2064 H   0  0  0  0  0  0  0  0  0  0  0  0
    5.5745   -3.8283   -1.4344 H   0  0  0  0  0  0  0  0  0  0  0  0
    6.5672   -3.2980   -2.8623 H   0  0  0  0  0  0  0  0  0  0  0  0
  1  2  1  0      
  1 36  1  0      
  1 37  1  0      
  1 38  1  0      
  3  2  1  0      
  4  3  1  0      
  3 10  1  0      
  3 39  1  0      
  4  5  1  0      
  6  4  1  0      
  4 40  1  0      
  5 41  1  0      
  6  7  1  0      
  8  6  1  0      
  6 42  1  0      
  7 43  1  0      
  8  9  1  0      
  8 13  1  0      
  8 44  1  0      
 10  9  1  0      
 10 11  1  0      
 10 45  1  0      
 11 12  1  0      
 11 46  1  0      
 11 47  1  0      
 12 48  1  0      
 14 13  1  0      
 15 14  1  0      
 14 21  1  0      
 14 49  1  0      
 15 16  1  0      
 17 15  1  0      
 15 50  1  0      
 16 51  1  0      
 17 18  1  0      
 19 17  1  0      
 17 52  1  0      
 18 53  1  0      
 19 20  1  0      
 19 24  1  0      
 19 54  1  0      
 21 20  1  0      
 21 22  1  0      
 21 55  1  0      
 22 23  1  0      
 22 56  1  0      
 22 57  1  0      
 23 58  1  0      
 25 24  1  0      
 26 25  1  0      
 25 32  1  0      
 25 59  1  0      
 26 27  1  0      
 28 26  1  0      
 26 60  1  0      
 27 61  1  0      
 28 29  1  0      
 30 28  1  0      
 28 62  1  0      
 29 63  1  0      
 30 31  1  0      
 30 35  1  0      
 30 64  1  0      
 32 31  1  0      
 32 33  1  0      
 32 65  1  0      
 33 34  1  0      
 33 66  1  0      
 33 67  1  0      
 34 68  1  0      
 35 69  1  0      
 35 70  1  0      
 35 71  1  0      
M  END
$$$$
