Fragment
  Chem3D Core 21.007272619303D

 34 34  0  0  0  0  0  0  0  0999 V2000
    3.2350   -1.2851    2.6784 C   0  0  0  0  0  0  0  0  0  0  0  0
    2.4741   -0.7167    1.4878 C   0  0  0  0  0  0  0  0  0  0  0  0
    3.3877   -0.6327    0.3048 C   0  0  0  0  0  0  0  0  0  0  0  0
    2.9318   -0.1597   -0.8596 C   0  0  0  0  0  0  0  0  0  0  0  0
    1.5077    0.2858   -0.9805 C   0  0  0  0  0  0  0  0  0  0  0  0
    1.2473    0.7768   -2.3985 C   0  0  0  0  0  0  0  0  0  0  0  0
   -0.2015    1.2300   -2.5215 C   0  0  0  0  0  0  0  0  0  0  0  0
   -1.1120    0.0815   -2.2167 C   0  0  0  0  0  0  0  0  0  0  0  0
   -0.5773   -1.1631   -1.8842 C   0  0  0  0  0  0  0  0  0  0  0  0
   -1.4257   -2.2333   -1.6004 C   0  0  0  0  0  0  0  0  0  0  0  0
   -2.8087   -2.0588   -1.6490 C   0  0  0  0  0  0  0  0  0  0  0  0
   -3.3434   -0.8142   -1.9814 C   0  0  0  0  0  0  0  0  0  0  0  0
   -2.4950    0.2560   -2.2653 C   0  0  0  0  0  0  0  0  0  0  0  0
   -0.4644    2.3607   -1.5356 C   0  0  0  0  0  0  0  0  0  0  0  0
    2.5558   -1.3476    3.5579 H   0  0  0  0  0  0  0  0  0  0  0  0
    3.6101   -2.3024    2.4269 H   0  0  0  0  0  0  0  0  0  0  0  0
    4.0948   -0.6211    2.9203 H   0  0  0  0  0  0  0  0  0  0  0  0
    2.0991    0.3006    1.7392 H   0  0  0  0  0  0  0  0  0  0  0  0
    1.6143   -1.3808    1.2459 H   0  0  0  0  0  0  0  0  0  0  0  0
    4.4341   -0.9600    0.3937 H   0  0  0  0  0  0  0  0  0  0  0  0
    3.6030   -0.0980   -1.7289 H   0  0  0  0  0  0  0  0  0  0  0  0
    0.8317   -0.5690   -0.7544 H   0  0  0  0  0  0  0  0  0  0  0  0
    1.3154    1.1125   -0.2606 H   0  0  0  0  0  0  0  0  0  0  0  0
    1.9233    1.6316   -2.6246 H   0  0  0  0  0  0  0  0  0  0  0  0
    1.4396   -0.0499   -3.1184 H   0  0  0  0  0  0  0  0  0  0  0  0
   -0.3912    1.5887   -3.5579 H   0  0  0  0  0  0  0  0  0  0  0  0
    0.5134   -1.3007   -1.8458 H   0  0  0  0  0  0  0  0  0  0  0  0
   -1.0041   -3.2149   -1.3383 H   0  0  0  0  0  0  0  0  0  0  0  0
   -3.4777   -2.9028   -1.4252 H   0  0  0  0  0  0  0  0  0  0  0  0
   -4.4341   -0.6766   -2.0197 H   0  0  0  0  0  0  0  0  0  0  0  0
   -2.9166    1.2376   -2.5276 H   0  0  0  0  0  0  0  0  0  0  0  0
   -1.5230    2.6927   -1.6246 H   0  0  0  0  0  0  0  0  0  0  0  0
    0.2121    3.2149   -1.7625 H   0  0  0  0  0  0  0  0  0  0  0  0
   -0.2745    2.0010   -0.4995 H   0  0  0  0  0  0  0  0  0  0  0  0
  1  2  1  0      
  1 15  1  0      
  1 16  1  0      
  1 17  1  0      
  2  3  1  0      
  2 18  1  0      
  2 19  1  0      
  3  4  2  0      
  3 20  1  0      
  4  5  1  0      
  4 21  1  0      
  5  6  1  0      
  5 22  1  0      
  5 23  1  0      
  6  7  1  0      
  6 24  1  0      
  6 25  1  0      
  7  8  1  0      
  7 14  1  0      
  7 26  1  0      
  8  9  1  0      
  8 13  2  0      
  9 10  2  0      
  9 27  1  0      
 10 11  1  0      
 10 28  1  0      
 11 12  2  0      
 11 29  1  0      
 12 13  1  0      
 12 30  1  0      
 13 31  1  0      
 14 32  1  0      
 14 33  1  0      
 14 34  1  0      
M  END
$$$$
