Fragment
  Chem3D Core 21.007272619323D

 36 36  0  0  0  0  0  0  0  0999 V2000
    2.6647   -1.4398   -1.2887 C   0  0  0  0  0  0  0  0  0  0  0  0
    1.9579   -1.6283    0.0472 C   0  0  0  0  0  0  0  0  0  0  0  0
    0.5091   -1.1750   -0.0758 C   0  0  0  0  0  0  0  0  0  0  0  0
   -0.4014   -2.3236    0.2289 C   0  0  0  0  0  0  0  0  0  0  0  0
    0.1333   -3.5682    0.5614 C   0  0  0  0  0  0  0  0  0  0  0  0
   -0.7151   -4.6384    0.8452 C   0  0  0  0  0  0  0  0  0  0  0  0
   -2.0981   -4.4639    0.7966 C   0  0  0  0  0  0  0  0  0  0  0  0
   -2.6328   -3.2193    0.4642 C   0  0  0  0  0  0  0  0  0  0  0  0
   -1.7844   -2.1491    0.1803 C   0  0  0  0  0  0  0  0  0  0  0  0
    0.2463   -0.0444    0.9101 C   0  0  0  0  0  0  0  0  0  0  0  0
   -0.1889    1.2018    0.1503 C   0  0  0  0  0  0  0  0  0  0  0  0
   -0.4517    2.3325    1.1362 C   0  0  0  0  0  0  0  0  0  0  0  0
   -0.8868    3.5786    0.3764 C   0  0  0  0  0  0  0  0  0  0  0  0
   -1.1497    4.7093    1.3623 C   0  0  0  0  0  0  0  0  0  0  0  0
    3.7235   -1.7711   -1.1988 H   0  0  0  0  0  0  0  0  0  0  0  0
    2.1516   -2.0465   -2.0681 H   0  0  0  0  0  0  0  0  0  0  0  0
    2.6355   -0.3647   -1.5752 H   0  0  0  0  0  0  0  0  0  0  0  0
    2.4710   -1.0216    0.8266 H   0  0  0  0  0  0  0  0  0  0  0  0
    1.9871   -2.7034    0.3337 H   0  0  0  0  0  0  0  0  0  0  0  0
    0.3195   -0.8163   -1.1122 H   0  0  0  0  0  0  0  0  0  0  0  0
    1.2240   -3.7058    0.5998 H   0  0  0  0  0  0  0  0  0  0  0  0
   -0.2934   -5.6200    1.1073 H   0  0  0  0  0  0  0  0  0  0  0  0
   -2.7671   -5.3079    1.0204 H   0  0  0  0  0  0  0  0  0  0  0  0
   -3.7235   -3.0817    0.4259 H   0  0  0  0  0  0  0  0  0  0  0  0
   -2.2060   -1.1675   -0.0819 H   0  0  0  0  0  0  0  0  0  0  0  0
   -0.5590   -0.3480    1.6159 H   0  0  0  0  0  0  0  0  0  0  0  0
    1.1769    0.1747    1.4798 H   0  0  0  0  0  0  0  0  0  0  0  0
    0.6164    1.5054   -0.5555 H   0  0  0  0  0  0  0  0  0  0  0  0
   -1.1196    0.9827   -0.4194 H   0  0  0  0  0  0  0  0  0  0  0  0
   -1.2570    2.0288    1.8420 H   0  0  0  0  0  0  0  0  0  0  0  0
    0.4790    2.5516    1.7059 H   0  0  0  0  0  0  0  0  0  0  0  0
   -0.0816    3.8822   -0.3294 H   0  0  0  0  0  0  0  0  0  0  0  0
   -1.8175    3.3595   -0.1933 H   0  0  0  0  0  0  0  0  0  0  0  0
   -1.4677    5.6200    0.8070 H   0  0  0  0  0  0  0  0  0  0  0  0
   -1.9550    4.4057    2.0681 H   0  0  0  0  0  0  0  0  0  0  0  0
   -0.2190    4.9284    1.9320 H   0  0  0  0  0  0  0  0  0  0  0  0
  1  2  1  0      
  1 15  1  0      
  1 16  1  0      
  1 17  1  0      
  2  3  1  0      
  2 18  1  0      
  2 19  1  0      
  3  4  1  0      
  3 10  1  0      
  3 20  1  0      
  4  5  1  0      
  4  9  2  0      
  5  6  2  0      
  5 21  1  0      
  6  7  1  0      
  6 22  1  0      
  7  8  2  0      
  7 23  1  0      
  8  9  1  0      
  8 24  1  0      
  9 25  1  0      
 10 11  1  0      
 10 26  1  0      
 10 27  1  0      
 11 12  1  0      
 11 28  1  0      
 11 29  1  0      
 12 13  1  0      
 12 30  1  0      
 12 31  1  0      
 13 14  1  0      
 13 32  1  0      
 13 33  1  0      
 14 34  1  0      
 14 35  1  0      
 14 36  1  0      
M  END
$$$$
