Fragment
  Chem3D Core 21.007272619303D

 86 88  0  0  0  0  0  0  0  0999 V2000
    0.8391   -5.2104    1.0039 C   0  0  0  0  0  0  0  0  0  0  0  0
    0.0782   -4.6420   -0.1867 C   0  0  0  0  0  0  0  0  0  0  0  0
    0.9918   -4.5579   -1.3696 C   0  0  0  0  0  0  0  0  0  0  0  0
    0.5359   -4.0850   -2.5341 C   0  0  0  0  0  0  0  0  0  0  0  0
   -0.8882   -3.6395   -2.6550 C   0  0  0  0  0  0  0  0  0  0  0  0
   -1.1486   -3.1485   -4.0729 C   0  0  0  0  0  0  0  0  0  0  0  0
   -2.5974   -2.6952   -4.1959 C   0  0  0  0  0  0  0  0  0  0  0  0
   -3.5079   -3.8438   -3.8912 C   0  0  0  0  0  0  0  0  0  0  0  0
   -2.9732   -5.0884   -3.5587 C   0  0  0  0  0  0  0  0  0  0  0  0
   -3.8216   -6.1586   -3.2749 C   0  0  0  0  0  0  0  0  0  0  0  0
   -5.2046   -5.9841   -3.3235 C   0  0  0  0  0  0  0  0  0  0  0  0
   -5.7393   -4.7395   -3.6559 C   0  0  0  0  0  0  0  0  0  0  0  0
   -4.8909   -3.6693   -3.9398 C   0  0  0  0  0  0  0  0  0  0  0  0
   -2.8603   -1.5645   -3.2100 C   0  0  0  0  0  0  0  0  0  0  0  0
   -3.2880   -0.3397   -3.9569 C   0  0  0  0  0  0  0  0  0  0  0  0
   -3.5738    0.7837   -3.2906 C   0  0  0  0  0  0  0  0  0  0  0  0
   -3.4662    0.8167   -1.7979 C   0  0  0  0  0  0  0  0  0  0  0  0
   -3.8437    2.2025   -1.2914 C   0  0  0  0  0  0  0  0  0  0  0  0
   -3.7342    2.2361    0.2273 C   0  0  0  0  0  0  0  0  0  0  0  0
   -4.1046    3.5989    0.7236 C   0  0  0  0  0  0  0  0  0  0  0  0
   -5.1774    3.7537    1.6014 C   0  0  0  0  0  0  0  0  0  0  0  0
   -5.5226    5.0236    2.0638 C   0  0  0  0  0  0  0  0  0  0  0  0
   -4.7949    6.1387    1.6483 C   0  0  0  0  0  0  0  0  0  0  0  0
   -3.7221    5.9840    0.7705 C   0  0  0  0  0  0  0  0  0  0  0  0
   -3.3769    4.7140    0.3081 C   0  0  0  0  0  0  0  0  0  0  0  0
   -2.3035    1.9174    0.6410 C   0  0  0  0  0  0  0  0  0  0  0  0
   -2.1959    1.9504    2.1337 C   0  0  0  0  0  0  0  0  0  0  0  0
   -1.0235    1.6991    2.7252 C   0  0  0  0  0  0  0  0  0  0  0  0
    0.1817    1.3848    1.8946 C   0  0  0  0  0  0  0  0  0  0  0  0
    1.3774    1.1405    2.8057 C   0  0  0  0  0  0  0  0  0  0  0  0
    2.6035    0.8207    1.9607 C   0  0  0  0  0  0  0  0  0  0  0  0
    3.7781    0.5817    2.8574 C   0  0  0  0  0  0  0  0  0  0  0  0
    4.4359   -0.6480    2.8323 C   0  0  0  0  0  0  0  0  0  0  0  0
    5.5303   -0.8707    3.6679 C   0  0  0  0  0  0  0  0  0  0  0  0
    5.9669    0.1364    4.5286 C   0  0  0  0  0  0  0  0  0  0  0  0
    5.3093    1.3661    4.5536 C   0  0  0  0  0  0  0  0  0  0  0  0
    4.2148    1.5888    3.7181 C   0  0  0  0  0  0  0  0  0  0  0  0
    2.9026    1.9925    1.0349 C   0  0  0  0  0  0  0  0  0  0  0  0
    0.1599   -5.2729    1.8834 H   0  0  0  0  0  0  0  0  0  0  0  0
    1.2142   -6.2277    0.7524 H   0  0  0  0  0  0  0  0  0  0  0  0
    1.6989   -4.5463    1.2458 H   0  0  0  0  0  0  0  0  0  0  0  0
   -0.2968   -3.6247    0.0648 H   0  0  0  0  0  0  0  0  0  0  0  0
   -0.7816   -5.3060   -0.4286 H   0  0  0  0  0  0  0  0  0  0  0  0
    2.0382   -4.8853   -1.2808 H   0  0  0  0  0  0  0  0  0  0  0  0
    1.2071   -4.0232   -3.4033 H   0  0  0  0  0  0  0  0  0  0  0  0
   -1.5642   -4.4943   -2.4289 H   0  0  0  0  0  0  0  0  0  0  0  0
   -1.0805   -2.8127   -1.9351 H   0  0  0  0  0  0  0  0  0  0  0  0
   -0.4726   -2.2937   -4.2990 H   0  0  0  0  0  0  0  0  0  0  0  0
   -0.9564   -3.9752   -4.7929 H   0  0  0  0  0  0  0  0  0  0  0  0
   -2.7871   -2.3365   -5.2323 H   0  0  0  0  0  0  0  0  0  0  0  0
   -1.8825   -5.2259   -3.5203 H   0  0  0  0  0  0  0  0  0  0  0  0
   -3.4000   -7.1402   -3.0128 H   0  0  0  0  0  0  0  0  0  0  0  0
   -5.8736   -6.8281   -3.0997 H   0  0  0  0  0  0  0  0  0  0  0  0
   -6.8300   -4.6019   -3.6942 H   0  0  0  0  0  0  0  0  0  0  0  0
   -5.3126   -2.6877   -4.2020 H   0  0  0  0  0  0  0  0  0  0  0  0
   -3.6656   -1.8682   -2.5043 H   0  0  0  0  0  0  0  0  0  0  0  0
   -1.9296   -1.3454   -2.6403 H   0  0  0  0  0  0  0  0  0  0  0  0
   -3.3671   -0.3639   -5.0537 H   0  0  0  0  0  0  0  0  0  0  0  0
   -3.8881    1.6838   -3.8394 H   0  0  0  0  0  0  0  0  0  0  0  0
   -4.1566    0.0615   -1.3599 H   0  0  0  0  0  0  0  0  0  0  0  0
   -2.4205    0.5838   -1.4963 H   0  0  0  0  0  0  0  0  0  0  0  0
   -3.1533    2.9577   -1.7294 H   0  0  0  0  0  0  0  0  0  0  0  0
   -4.8894    2.4355   -1.5931 H   0  0  0  0  0  0  0  0  0  0  0  0
   -4.4240    1.4805    0.6655 H   0  0  0  0  0  0  0  0  0  0  0  0
   -5.7512    2.8743    1.9291 H   0  0  0  0  0  0  0  0  0  0  0  0
   -6.3687    5.1457    2.7560 H   0  0  0  0  0  0  0  0  0  0  0  0
   -5.0672    7.1402    2.0129 H   0  0  0  0  0  0  0  0  0  0  0  0
   -3.1482    6.8634    0.4429 H   0  0  0  0  0  0  0  0  0  0  0  0
   -2.5309    4.5919   -0.3842 H   0  0  0  0  0  0  0  0  0  0  0  0
   -2.0281    0.9041    0.2720 H   0  0  0  0  0  0  0  0  0  0  0  0
   -1.6137    2.6730    0.2027 H   0  0  0  0  0  0  0  0  0  0  0  0
   -3.0814    2.1813    2.7440 H   0  0  0  0  0  0  0  0  0  0  0  0
   -0.9444    1.7233    3.8220 H   0  0  0  0  0  0  0  0  0  0  0  0
   -0.0142    0.4725    1.2878 H   0  0  0  0  0  0  0  0  0  0  0  0
    0.3997    2.2415    1.2183 H   0  0  0  0  0  0  0  0  0  0  0  0
    1.5733    2.0528    3.4124 H   0  0  0  0  0  0  0  0  0  0  0  0
    1.1594    0.2838    3.4820 H   0  0  0  0  0  0  0  0  0  0  0  0
    2.4077   -0.0912    1.3533 H   0  0  0  0  0  0  0  0  0  0  0  0
    4.0916   -1.4422    2.1535 H   0  0  0  0  0  0  0  0  0  0  0  0
    6.0490   -1.8405    3.6482 H   0  0  0  0  0  0  0  0  0  0  0  0
    6.8300   -0.0393    5.1875 H   0  0  0  0  0  0  0  0  0  0  0  0
    5.6537    2.1603    5.2323 H   0  0  0  0  0  0  0  0  0  0  0  0
    3.6960    2.5586    3.7378 H   0  0  0  0  0  0  0  0  0  0  0  0
    3.7986    1.7588    0.4174 H   0  0  0  0  0  0  0  0  0  0  0  0
    2.0293    2.1702    0.3682 H   0  0  0  0  0  0  0  0  0  0  0  0
    3.0984    2.9044    1.6423 H   0  0  0  0  0  0  0  0  0  0  0  0
  1  2  1  0      
  1 39  1  0      
  1 40  1  0      
  1 41  1  0      
  2  3  1  0      
  2 42  1  0      
  2 43  1  0      
  3  4  2  0      
  3 44  1  0      
  4  5  1  0      
  4 45  1  0      
  5  6  1  0      
  5 46  1  0      
  5 47  1  0      
  6  7  1  0      
  6 48  1  0      
  6 49  1  0      
  7  8  1  0      
  7 14  1  0      
  7 50  1  0      
  8  9  1  0      
  8 13  2  0      
  9 10  2  0      
  9 51  1  0      
 10 11  1  0      
 10 52  1  0      
 11 12  2  0      
 11 53  1  0      
 12 13  1  0      
 12 54  1  0      
 13 55  1  0      
 14 15  1  0      
 14 56  1  0      
 14 57  1  0      
 15 16  2  0      
 15 58  1  0      
 16 17  1  0      
 16 59  1  0      
 17 18  1  0      
 17 60  1  0      
 17 61  1  0      
 18 19  1  0      
 18 62  1  0      
 18 63  1  0      
 19 20  1  0      
 19 26  1  0      
 19 64  1  0      
 20 21  1  0      
 20 25  2  0      
 21 22  2  0      
 21 65  1  0      
 22 23  1  0      
 22 66  1  0      
 23 24  2  0      
 23 67  1  0      
 24 25  1  0      
 24 68  1  0      
 25 69  1  0      
 26 27  1  0      
 26 70  1  0      
 26 71  1  0      
 27 28  2  0      
 27 72  1  0      
 28 29  1  0      
 28 73  1  0      
 29 30  1  0      
 29 74  1  0      
 29 75  1  0      
 30 31  1  0      
 30 76  1  0      
 30 77  1  0      
 31 32  1  0      
 31 38  1  0      
 31 78  1  0      
 32 33  1  0      
 32 37  2  0      
 33 34  2  0      
 33 79  1  0      
 34 35  1  0      
 34 80  1  0      
 35 36  2  0      
 35 81  1  0      
 36 37  1  0      
 36 82  1  0      
 37 83  1  0      
 38 84  1  0      
 38 85  1  0      
 38 86  1  0      
M  END
$$$$
