Fragment
  Chem3D Core 21.007272619323D

 92 94  0  0  0  0  0  0  0  0999 V2000
    6.4097   -5.3542    1.1684 C   0  0  0  0  0  0  0  0  0  0  0  0
    5.7029   -5.5426    2.5043 C   0  0  0  0  0  0  0  0  0  0  0  0
    4.2541   -5.0894    2.3813 C   0  0  0  0  0  0  0  0  0  0  0  0
    3.3436   -6.2379    2.6860 C   0  0  0  0  0  0  0  0  0  0  0  0
    3.8783   -7.4825    3.0185 C   0  0  0  0  0  0  0  0  0  0  0  0
    3.0299   -8.5527    3.3023 C   0  0  0  0  0  0  0  0  0  0  0  0
    1.6469   -8.3782    3.2537 C   0  0  0  0  0  0  0  0  0  0  0  0
    1.1122   -7.1336    2.9213 C   0  0  0  0  0  0  0  0  0  0  0  0
    1.9606   -6.0634    2.6374 C   0  0  0  0  0  0  0  0  0  0  0  0
    3.9912   -3.9587    3.3672 C   0  0  0  0  0  0  0  0  0  0  0  0
    3.5561   -2.7126    2.6074 C   0  0  0  0  0  0  0  0  0  0  0  0
    3.2932   -1.5819    3.5933 C   0  0  0  0  0  0  0  0  0  0  0  0
    2.8581   -0.3357    2.8335 C   0  0  0  0  0  0  0  0  0  0  0  0
    2.5953    0.7949    3.8194 C   0  0  0  0  0  0  0  0  0  0  0  0
    2.1601    2.0411    3.0596 C   0  0  0  0  0  0  0  0  0  0  0  0
    1.9013    3.1513    4.0299 C   0  0  0  0  0  0  0  0  0  0  0  0
    2.6333    4.3356    3.9461 C   0  0  0  0  0  0  0  0  0  0  0  0
    2.3922    5.3699    4.8503 C   0  0  0  0  0  0  0  0  0  0  0  0
    1.4189    5.2200    5.8381 C   0  0  0  0  0  0  0  0  0  0  0  0
    0.6868    4.0358    5.9218 C   0  0  0  0  0  0  0  0  0  0  0  0
    0.9280    3.0014    5.0177 C   0  0  0  0  0  0  0  0  0  0  0  0
    0.8866    1.7422    2.2797 C   0  0  0  0  0  0  0  0  0  0  0  0
    0.4515    2.9884    1.5199 C   0  0  0  0  0  0  0  0  0  0  0  0
   -0.8221    2.6895    0.7400 C   0  0  0  0  0  0  0  0  0  0  0  0
   -1.2572    3.9357   -0.0198 C   0  0  0  0  0  0  0  0  0  0  0  0
   -2.5307    3.6368   -0.7998 C   0  0  0  0  0  0  0  0  0  0  0  0
   -2.9658    4.8829   -1.5596 C   0  0  0  0  0  0  0  0  0  0  0  0
   -4.2172    4.5875   -2.3263 C   0  0  0  0  0  0  0  0  0  0  0  0
   -5.3790    5.3163   -2.0726 C   0  0  0  0  0  0  0  0  0  0  0  0
   -6.5450    5.0409   -2.7870 C   0  0  0  0  0  0  0  0  0  0  0  0
   -6.5489    4.0368   -3.7551 C   0  0  0  0  0  0  0  0  0  0  0  0
   -5.3871    3.3081   -4.0090 C   0  0  0  0  0  0  0  0  0  0  0  0
   -4.2211    3.5834   -3.2945 C   0  0  0  0  0  0  0  0  0  0  0  0
   -1.8652    5.2991   -2.5264 C   0  0  0  0  0  0  0  0  0  0  0  0
   -2.3003    6.5452   -3.2862 C   0  0  0  0  0  0  0  0  0  0  0  0
   -1.1996    6.9614   -4.2531 C   0  0  0  0  0  0  0  0  0  0  0  0
   -1.6347    8.2075   -5.0129 C   0  0  0  0  0  0  0  0  0  0  0  0
   -0.5340    8.6236   -5.9798 C   0  0  0  0  0  0  0  0  0  0  0  0
    7.4684   -5.6854    1.2583 H   0  0  0  0  0  0  0  0  0  0  0  0
    5.8966   -5.9609    0.3890 H   0  0  0  0  0  0  0  0  0  0  0  0
    6.3805   -4.2791    0.8819 H   0  0  0  0  0  0  0  0  0  0  0  0
    6.2159   -4.9360    3.2837 H   0  0  0  0  0  0  0  0  0  0  0  0
    5.7320   -6.6177    2.7908 H   0  0  0  0  0  0  0  0  0  0  0  0
    4.0645   -4.7307    1.3449 H   0  0  0  0  0  0  0  0  0  0  0  0
    4.9690   -7.6201    3.0569 H   0  0  0  0  0  0  0  0  0  0  0  0
    3.4515   -9.5343    3.5644 H   0  0  0  0  0  0  0  0  0  0  0  0
    0.9779   -9.2222    3.4775 H   0  0  0  0  0  0  0  0  0  0  0  0
    0.0215   -6.9960    2.8830 H   0  0  0  0  0  0  0  0  0  0  0  0
    1.5390   -5.0819    2.3752 H   0  0  0  0  0  0  0  0  0  0  0  0
    3.1859   -4.2623    4.0730 H   0  0  0  0  0  0  0  0  0  0  0  0
    4.9219   -3.7396    3.9369 H   0  0  0  0  0  0  0  0  0  0  0  0
    4.3614   -2.4089    1.9016 H   0  0  0  0  0  0  0  0  0  0  0  0
    2.6254   -2.9317    2.0377 H   0  0  0  0  0  0  0  0  0  0  0  0
    2.4880   -1.8855    4.2991 H   0  0  0  0  0  0  0  0  0  0  0  0
    4.2239   -1.3628    4.1630 H   0  0  0  0  0  0  0  0  0  0  0  0
    3.6634   -0.0321    2.1277 H   0  0  0  0  0  0  0  0  0  0  0  0
    1.9274   -0.5549    2.2638 H   0  0  0  0  0  0  0  0  0  0  0  0
    1.7900    0.4913    4.5252 H   0  0  0  0  0  0  0  0  0  0  0  0
    3.5260    1.0140    4.3891 H   0  0  0  0  0  0  0  0  0  0  0  0
    2.9649    2.3446    2.3532 H   0  0  0  0  0  0  0  0  0  0  0  0
    3.4008    4.4538    3.1670 H   0  0  0  0  0  0  0  0  0  0  0  0
    2.9696    6.3039    4.7843 H   0  0  0  0  0  0  0  0  0  0  0  0
    1.2288    6.0358    6.5511 H   0  0  0  0  0  0  0  0  0  0  0  0
   -0.0808    3.9176    6.7008 H   0  0  0  0  0  0  0  0  0  0  0  0
    0.3507    2.0674    5.0837 H   0  0  0  0  0  0  0  0  0  0  0  0
    1.0791    0.9168    1.5583 H   0  0  0  0  0  0  0  0  0  0  0  0
    0.0818    1.4387    2.9860 H   0  0  0  0  0  0  0  0  0  0  0  0
    0.2590    3.8138    2.2413 H   0  0  0  0  0  0  0  0  0  0  0  0
    1.2563    3.2919    0.8135 H   0  0  0  0  0  0  0  0  0  0  0  0
   -0.6296    1.8641    0.0186 H   0  0  0  0  0  0  0  0  0  0  0  0
   -1.6269    2.3860    1.4463 H   0  0  0  0  0  0  0  0  0  0  0  0
   -1.4496    4.7611    0.7016 H   0  0  0  0  0  0  0  0  0  0  0  0
   -0.4524    4.2392   -0.7262 H   0  0  0  0  0  0  0  0  0  0  0  0
   -2.3383    2.8114   -1.5212 H   0  0  0  0  0  0  0  0  0  0  0  0
   -3.3355    3.3332   -0.0934 H   0  0  0  0  0  0  0  0  0  0  0  0
   -3.1578    5.7088   -0.8385 H   0  0  0  0  0  0  0  0  0  0  0  0
   -5.3759    6.1082   -1.3091 H   0  0  0  0  0  0  0  0  0  0  0  0
   -7.4613    5.6155   -2.5868 H   0  0  0  0  0  0  0  0  0  0  0  0
   -7.4684    3.8196   -4.3185 H   0  0  0  0  0  0  0  0  0  0  0  0
   -5.3902    2.5163   -4.7725 H   0  0  0  0  0  0  0  0  0  0  0  0
   -3.3048    3.0087   -3.4946 H   0  0  0  0  0  0  0  0  0  0  0  0
   -0.9348    5.5187   -1.9563 H   0  0  0  0  0  0  0  0  0  0  0  0
   -1.6732    4.4732   -3.2475 H   0  0  0  0  0  0  0  0  0  0  0  0
   -3.2306    6.3256   -3.8563 H   0  0  0  0  0  0  0  0  0  0  0  0
   -2.4922    7.3711   -2.5652 H   0  0  0  0  0  0  0  0  0  0  0  0
   -0.2692    7.1810   -3.6830 H   0  0  0  0  0  0  0  0  0  0  0  0
   -1.0076    6.1355   -4.9742 H   0  0  0  0  0  0  0  0  0  0  0  0
   -2.5650    7.9878   -5.5830 H   0  0  0  0  0  0  0  0  0  0  0  0
   -1.8266    9.0333   -4.2919 H   0  0  0  0  0  0  0  0  0  0  0  0
   -0.8520    9.5343   -6.5350 H   0  0  0  0  0  0  0  0  0  0  0  0
    0.3963    8.8433   -5.4097 H   0  0  0  0  0  0  0  0  0  0  0  0
   -0.3421    7.7978   -6.7008 H   0  0  0  0  0  0  0  0  0  0  0  0
  1  2  1  0      
  1 39  1  0      
  1 40  1  0      
  1 41  1  0      
  2  3  1  0      
  2 42  1  0      
  2 43  1  0      
  3  4  1  0      
  3 10  1  0      
  3 44  1  0      
  4  5  1  0      
  4  9  2  0      
  5  6  2  0      
  5 45  1  0      
  6  7  1  0      
  6 46  1  0      
  7  8  2  0      
  7 47  1  0      
  8  9  1  0      
  8 48  1  0      
  9 49  1  0      
 10 11  1  0      
 10 50  1  0      
 10 51  1  0      
 11 12  1  0      
 11 52  1  0      
 11 53  1  0      
 12 13  1  0      
 12 54  1  0      
 12 55  1  0      
 13 14  1  0      
 13 56  1  0      
 13 57  1  0      
 14 15  1  0      
 14 58  1  0      
 14 59  1  0      
 15 16  1  0      
 15 22  1  0      
 15 60  1  0      
 16 17  1  0      
 16 21  2  0      
 17 18  2  0      
 17 61  1  0      
 18 19  1  0      
 18 62  1  0      
 19 20  2  0      
 19 63  1  0      
 20 21  1  0      
 20 64  1  0      
 21 65  1  0      
 22 23  1  0      
 22 66  1  0      
 22 67  1  0      
 23 24  1  0      
 23 68  1  0      
 23 69  1  0      
 24 25  1  0      
 24 70  1  0      
 24 71  1  0      
 25 26  1  0      
 25 72  1  0      
 25 73  1  0      
 26 27  1  0      
 26 74  1  0      
 26 75  1  0      
 27 28  1  0      
 27 34  1  0      
 27 76  1  0      
 28 29  1  0      
 28 33  2  0      
 29 30  2  0      
 29 77  1  0      
 30 31  1  0      
 30 78  1  0      
 31 32  2  0      
 31 79  1  0      
 32 33  1  0      
 32 80  1  0      
 33 81  1  0      
 34 35  1  0      
 34 82  1  0      
 34 83  1  0      
 35 36  1  0      
 35 84  1  0      
 35 85  1  0      
 36 37  1  0      
 36 86  1  0      
 36 87  1  0      
 37 38  1  0      
 37 88  1  0      
 37 89  1  0      
 38 90  1  0      
 38 91  1  0      
 38 92  1  0      
M  END
$$$$
