Fragment
  Chem3D Core 21.007272619303D

 77 79  0  0  0  0  0  0  0  0999 V2000
    2.6647   -4.2919    0.1936 C   0  0  0  0  0  0  0  0  0  0  0  0
    1.9579   -4.4804    1.5294 C   0  0  0  0  0  0  0  0  0  0  0  0
    0.5091   -4.0271    1.4064 C   0  0  0  0  0  0  0  0  0  0  0  0
   -0.4014   -5.1757    1.7111 C   0  0  0  0  0  0  0  0  0  0  0  0
    0.1333   -6.4203    2.0436 C   0  0  0  0  0  0  0  0  0  0  0  0
   -0.7151   -7.4905    2.3274 C   0  0  0  0  0  0  0  0  0  0  0  0
   -2.0981   -7.3160    2.2788 C   0  0  0  0  0  0  0  0  0  0  0  0
   -2.6328   -6.0714    1.9464 C   0  0  0  0  0  0  0  0  0  0  0  0
   -1.7844   -5.0012    1.6625 C   0  0  0  0  0  0  0  0  0  0  0  0
    0.2463   -2.8964    2.3923 C   0  0  0  0  0  0  0  0  0  0  0  0
   -0.1889   -1.6503    1.6325 C   0  0  0  0  0  0  0  0  0  0  0  0
   -1.4181   -1.9388    0.8798 C   0  0  0  0  0  0  0  0  0  0  0  0
   -2.3864   -2.1660    0.2868 N   0  0  0  0  0  0  0  0  0  0  0  0
   -0.4522   -0.5208    2.6197 C   0  0  0  0  0  0  0  0  0  0  0  0
    0.4732    0.6491    2.3124 C   0  0  0  0  0  0  0  0  0  0  0  0
    0.2127    1.7587    3.2828 C   0  0  0  0  0  0  0  0  0  0  0  0
    1.2359    2.2116    4.1155 C   0  0  0  0  0  0  0  0  0  0  0  0
    0.9931    3.2455    5.0198 C   0  0  0  0  0  0  0  0  0  0  0  0
   -0.2729    3.8265    5.0912 C   0  0  0  0  0  0  0  0  0  0  0  0
   -1.2961    3.3738    4.2585 C   0  0  0  0  0  0  0  0  0  0  0  0
   -1.0533    2.3398    3.3543 C   0  0  0  0  0  0  0  0  0  0  0  0
    0.2143    1.1436    0.8954 C   0  0  0  0  0  0  0  0  0  0  0  0
    1.1398    2.3134    0.5881 C   0  0  0  0  0  0  0  0  0  0  0  0
    2.5384    1.8767    0.7060 C   0  0  0  0  0  0  0  0  0  0  0  0
    3.6403    1.5327    0.7989 N   0  0  0  0  0  0  0  0  0  0  0  0
    0.8804    2.8063   -0.8294 C   0  0  0  0  0  0  0  0  0  0  0  0
    0.4430    4.2645   -0.7886 C   0  0  0  0  0  0  0  0  0  0  0  0
    0.1892    4.7479   -2.1825 C   0  0  0  0  0  0  0  0  0  0  0  0
   -1.0755    5.2158   -2.5390 C   0  0  0  0  0  0  0  0  0  0  0  0
   -1.3120    5.6660   -3.8378 C   0  0  0  0  0  0  0  0  0  0  0  0
   -0.2837    5.6484   -4.7801 C   0  0  0  0  0  0  0  0  0  0  0  0
    0.9811    5.1806   -4.4236 C   0  0  0  0  0  0  0  0  0  0  0  0
    1.2175    4.7303   -3.1247 C   0  0  0  0  0  0  0  0  0  0  0  0
    1.5405    5.1069   -0.1519 C   0  0  0  0  0  0  0  0  0  0  0  0
    1.1031    6.5651   -0.1111 C   0  0  0  0  0  0  0  0  0  0  0  0
   -0.1287    6.6860    0.6821 C   0  0  0  0  0  0  0  0  0  0  0  0
   -1.0990    6.7811    1.3069 N   0  0  0  0  0  0  0  0  0  0  0  0
    2.2012    7.4061    0.5266 C   0  0  0  0  0  0  0  0  0  0  0  0
    3.7235   -4.6231    0.2834 H   0  0  0  0  0  0  0  0  0  0  0  0
    2.1516   -4.8986   -0.5858 H   0  0  0  0  0  0  0  0  0  0  0  0
    2.6355   -3.2168   -0.0930 H   0  0  0  0  0  0  0  0  0  0  0  0
    2.4710   -3.8737    2.3088 H   0  0  0  0  0  0  0  0  0  0  0  0
    1.9871   -5.5554    1.8160 H   0  0  0  0  0  0  0  0  0  0  0  0
    0.3195   -3.6684    0.3700 H   0  0  0  0  0  0  0  0  0  0  0  0
    1.2240   -6.5578    2.0821 H   0  0  0  0  0  0  0  0  0  0  0  0
   -0.2934   -8.4721    2.5896 H   0  0  0  0  0  0  0  0  0  0  0  0
   -2.7671   -8.1600    2.5027 H   0  0  0  0  0  0  0  0  0  0  0  0
   -3.7235   -5.9338    1.9082 H   0  0  0  0  0  0  0  0  0  0  0  0
   -2.2060   -4.0196    1.4003 H   0  0  0  0  0  0  0  0  0  0  0  0
   -0.5590   -3.2001    3.0981 H   0  0  0  0  0  0  0  0  0  0  0  0
    1.1769   -2.6773    2.9620 H   0  0  0  0  0  0  0  0  0  0  0  0
    0.6159   -1.3468    0.9262 H   0  0  0  0  0  0  0  0  0  0  0  0
   -1.5109   -0.1893    2.5295 H   0  0  0  0  0  0  0  0  0  0  0  0
   -0.2625   -0.8817    3.6553 H   0  0  0  0  0  0  0  0  0  0  0  0
    1.5320    0.3177    2.4019 H   0  0  0  0  0  0  0  0  0  0  0  0
    2.2344    1.7535    4.0591 H   0  0  0  0  0  0  0  0  0  0  0  0
    1.8000    3.6026    5.6765 H   0  0  0  0  0  0  0  0  0  0  0  0
   -0.4644    4.6419    5.8043 H   0  0  0  0  0  0  0  0  0  0  0  0
   -2.2945    3.8320    4.3148 H   0  0  0  0  0  0  0  0  0  0  0  0
   -1.8603    1.9826    2.6976 H   0  0  0  0  0  0  0  0  0  0  0  0
    0.4080    0.3185    0.1739 H   0  0  0  0  0  0  0  0  0  0  0  0
   -0.8445    1.4749    0.8059 H   0  0  0  0  0  0  0  0  0  0  0  0
    0.9468    3.1384    1.3098 H   0  0  0  0  0  0  0  0  0  0  0  0
    1.8133    2.7160   -1.4296 H   0  0  0  0  0  0  0  0  0  0  0  0
    0.0779    2.1913   -1.2948 H   0  0  0  0  0  0  0  0  0  0  0  0
   -0.4897    4.3553   -0.1879 H   0  0  0  0  0  0  0  0  0  0  0  0
   -1.8864    5.2297   -1.7958 H   0  0  0  0  0  0  0  0  0  0  0  0
   -2.3094    6.0349   -4.1190 H   0  0  0  0  0  0  0  0  0  0  0  0
   -0.4701    6.0035   -5.8043 H   0  0  0  0  0  0  0  0  0  0  0  0
    1.7920    5.1668   -5.1667 H   0  0  0  0  0  0  0  0  0  0  0  0
    2.2149    4.3613   -2.8435 H   0  0  0  0  0  0  0  0  0  0  0  0
    1.7292    4.7475    0.8845 H   0  0  0  0  0  0  0  0  0  0  0  0
    2.4731    5.0162   -0.7525 H   0  0  0  0  0  0  0  0  0  0  0  0
    0.9137    6.9247   -1.1472 H   0  0  0  0  0  0  0  0  0  0  0  0
    1.8825    8.4721    0.5570 H   0  0  0  0  0  0  0  0  0  0  0  0
    3.1336    7.3151   -0.0742 H   0  0  0  0  0  0  0  0  0  0  0  0
    2.3898    7.0458    1.5627 H   0  0  0  0  0  0  0  0  0  0  0  0
  1  2  1  0      
  1 39  1  0      
  1 40  1  0      
  1 41  1  0      
  2  3  1  0      
  2 42  1  0      
  2 43  1  0      
  3  4  1  0      
  3 10  1  0      
  3 44  1  0      
  4  5  1  0      
  4  9  2  0      
  5  6  2  0      
  5 45  1  0      
  6  7  1  0      
  6 46  1  0      
  7  8  2  0      
  7 47  1  0      
  8  9  1  0      
  8 48  1  0      
  9 49  1  0      
 10 11  1  0      
 10 50  1  0      
 10 51  1  0      
 11 12  1  0      
 11 14  1  0      
 11 52  1  0      
 12 13  3  0      
 14 15  1  0      
 14 53  1  0      
 14 54  1  0      
 15 16  1  0      
 15 22  1  0      
 15 55  1  0      
 16 17  1  0      
 16 21  2  0      
 17 18  2  0      
 17 56  1  0      
 18 19  1  0      
 18 57  1  0      
 19 20  2  0      
 19 58  1  0      
 20 21  1  0      
 20 59  1  0      
 21 60  1  0      
 22 23  1  0      
 22 61  1  0      
 22 62  1  0      
 23 24  1  0      
 23 26  1  0      
 23 63  1  0      
 24 25  3  0      
 26 27  1  0      
 26 64  1  0      
 26 65  1  0      
 27 28  1  0      
 27 34  1  0      
 27 66  1  0      
 28 29  1  0      
 28 33  2  0      
 29 30  2  0      
 29 67  1  0      
 30 31  1  0      
 30 68  1  0      
 31 32  2  0      
 31 69  1  0      
 32 33  1  0      
 32 70  1  0      
 33 71  1  0      
 34 35  1  0      
 34 72  1  0      
 34 73  1  0      
 35 36  1  0      
 35 38  1  0      
 35 74  1  0      
 36 37  3  0      
 38 75  1  0      
 38 76  1  0      
 38 77  1  0      
M  END
$$$$
