Fragment
  Chem3D Core 21.007272619303D

 31 31  0  0  0  0  0  0  0  0999 V2000
    2.6647   -0.2511   -1.1763 C   0  0  0  0  0  0  0  0  0  0  0  0
    1.9579   -0.4395    0.1596 C   0  0  0  0  0  0  0  0  0  0  0  0
    0.5091    0.0137    0.0366 C   0  0  0  0  0  0  0  0  0  0  0  0
   -0.4014   -1.1349    0.3413 C   0  0  0  0  0  0  0  0  0  0  0  0
    0.1333   -2.3795    0.6738 C   0  0  0  0  0  0  0  0  0  0  0  0
   -0.7151   -3.4497    0.9576 C   0  0  0  0  0  0  0  0  0  0  0  0
   -2.0981   -3.2752    0.9090 C   0  0  0  0  0  0  0  0  0  0  0  0
   -2.6328   -2.0306    0.5766 C   0  0  0  0  0  0  0  0  0  0  0  0
   -1.7844   -0.9604    0.2927 C   0  0  0  0  0  0  0  0  0  0  0  0
    0.2463    1.1444    1.0225 C   0  0  0  0  0  0  0  0  0  0  0  0
   -0.1889    2.3905    0.2627 C   0  0  0  0  0  0  0  0  0  0  0  0
   -1.4181    2.1020   -0.4901 C   0  0  0  0  0  0  0  0  0  0  0  0
   -2.3864    1.8748   -1.0831 N   0  0  0  0  0  0  0  0  0  0  0  0
   -0.4522    3.5200    1.2498 C   0  0  0  0  0  0  0  0  0  0  0  0
    3.7235   -0.5823   -1.0864 H   0  0  0  0  0  0  0  0  0  0  0  0
    2.1516   -0.8578   -1.9557 H   0  0  0  0  0  0  0  0  0  0  0  0
    2.6355    0.8240   -1.4628 H   0  0  0  0  0  0  0  0  0  0  0  0
    2.4710    0.1671    0.9390 H   0  0  0  0  0  0  0  0  0  0  0  0
    1.9871   -1.5146    0.4461 H   0  0  0  0  0  0  0  0  0  0  0  0
    0.3195    0.3724   -0.9998 H   0  0  0  0  0  0  0  0  0  0  0  0
    1.2240   -2.5170    0.7122 H   0  0  0  0  0  0  0  0  0  0  0  0
   -0.2934   -4.4312    1.2197 H   0  0  0  0  0  0  0  0  0  0  0  0
   -2.7671   -4.1191    1.1328 H   0  0  0  0  0  0  0  0  0  0  0  0
   -3.7235   -1.8930    0.5383 H   0  0  0  0  0  0  0  0  0  0  0  0
   -2.2060    0.0212    0.0305 H   0  0  0  0  0  0  0  0  0  0  0  0
   -0.5590    0.8407    1.7283 H   0  0  0  0  0  0  0  0  0  0  0  0
    1.1769    1.3635    1.5922 H   0  0  0  0  0  0  0  0  0  0  0  0
    0.6159    2.6941   -0.4437 H   0  0  0  0  0  0  0  0  0  0  0  0
   -0.7703    4.4312    0.6956 H   0  0  0  0  0  0  0  0  0  0  0  0
    0.4787    3.7388    1.8193 H   0  0  0  0  0  0  0  0  0  0  0  0
   -1.2571    3.2155    1.9557 H   0  0  0  0  0  0  0  0  0  0  0  0
  1  2  1  0      
  1 15  1  0      
  1 16  1  0      
  1 17  1  0      
  2  3  1  0      
  2 18  1  0      
  2 19  1  0      
  3  4  1  0      
  3 10  1  0      
  3 20  1  0      
  4  5  1  0      
  4  9  2  0      
  5  6  2  0      
  5 21  1  0      
  6  7  1  0      
  6 22  1  0      
  7  8  2  0      
  7 23  1  0      
  8  9  1  0      
  8 24  1  0      
  9 25  1  0      
 10 11  1  0      
 10 26  1  0      
 10 27  1  0      
 11 12  1  0      
 11 14  1  0      
 11 28  1  0      
 12 13  3  0      
 14 29  1  0      
 14 30  1  0      
 14 31  1  0      
M  END
$$$$
