Fragment
  Chem3D Core 21.007272619303D

 18 17  0  0  0  0  0  0  0  0999 V2000
   -1.2171    1.5626   -0.1514 C   0  0  0  0  0  0  0  0  0  0  0  0
   -0.0030    0.8615   -0.1514 O   0  0  0  0  0  0  0  0  0  0  0  0
   -0.1562   -0.7572   -0.1514 Si  0  0  0  0  0  0  0  0  0  0  0  0
    1.5490   -1.5489   -0.1514 C   0  0  0  0  0  0  0  0  0  0  0  0
   -1.0966   -1.2968    1.3844 C   0  0  0  0  0  0  0  0  0  0  0  0
   -1.0975   -1.2973   -1.6865 C   0  0  0  0  0  0  0  0  0  0  0  0
   -1.0142    2.6570   -0.1514 H   0  0  0  0  0  0  0  0  0  0  0  0
   -1.8000    1.2940   -1.0607 H   0  0  0  0  0  0  0  0  0  0  0  0
   -1.8006    1.2937    0.7574 H   0  0  0  0  0  0  0  0  0  0  0  0
    1.4442   -2.6570   -0.1514 H   0  0  0  0  0  0  0  0  0  0  0  0
    2.1058   -1.2295   -1.0607 H   0  0  0  0  0  0  0  0  0  0  0  0
    2.1063   -1.2292    0.7574 H   0  0  0  0  0  0  0  0  0  0  0  0
   -1.2020   -2.4048    1.3854 H   0  0  0  0  0  0  0  0  0  0  0  0
   -2.1063   -0.8286    1.3841 H   0  0  0  0  0  0  0  0  0  0  0  0
   -0.5385   -0.9766    2.2926 H   0  0  0  0  0  0  0  0  0  0  0  0
   -1.3644   -0.4028   -2.2926 H   0  0  0  0  0  0  0  0  0  0  0  0
   -0.4587   -1.9782   -2.2924 H   0  0  0  0  0  0  0  0  0  0  0  0
   -2.0263   -1.8305   -1.3835 H   0  0  0  0  0  0  0  0  0  0  0  0
  1  2  1  0      
  1  7  1  0      
  1  8  1  0      
  1  9  1  0      
  2  3  1  0      
  3  4  1  0      
  3  5  1  0      
  3  6  1  0      
  4 10  1  0      
  4 11  1  0      
  4 12  1  0      
  5 13  1  0      
  5 14  1  0      
  5 15  1  0      
  6 16  1  0      
  6 17  1  0      
  6 18  1  0      
M  END
$$$$
