Fragment
  Chem3D Core 21.007272619303D

 38 37  0  0  0  0  0  0  0  0999 V2000
   -0.7306    3.7301    0.9531 C   0  0  0  0  0  0  0  0  0  0  0  0
   -1.9447    3.0289    0.9531 O   0  0  0  0  0  0  0  0  0  0  0  0
   -1.7914    1.4101    0.9531 Si  0  0  0  0  0  0  0  0  0  0  0  0
   -0.8501    0.8689    2.4878 C   0  0  0  0  0  0  0  0  0  0  0  0
   -3.4973    0.6200    0.9542 C   0  0  0  0  0  0  0  0  0  0  0  0
   -0.9772    0.9430   -0.3747 O   0  0  0  0  0  0  0  0  0  0  0  0
   -0.3752   -0.3173   -1.2071 Si  0  0  0  0  0  0  0  0  0  0  0  0
   -1.7724   -1.4842   -1.6768 C   0  0  0  0  0  0  0  0  0  0  0  0
    0.4685    0.3083   -2.7663 C   0  0  0  0  0  0  0  0  0  0  0  0
    0.7051   -1.1091   -0.2851 O   0  0  0  0  0  0  0  0  0  0  0  0
    1.7422   -2.3588   -0.2046 Si  0  0  0  0  0  0  0  0  0  0  0  0
    2.5748   -2.3758    1.4809 C   0  0  0  0  0  0  0  0  0  0  0  0
    0.8034   -3.9682   -0.4551 C   0  0  0  0  0  0  0  0  0  0  0  0
    3.0470   -2.1774   -1.5459 C   0  0  0  0  0  0  0  0  0  0  0  0
   -0.9336    4.8244    0.9531 H   0  0  0  0  0  0  0  0  0  0  0  0
   -0.1476    3.4614    1.8623 H   0  0  0  0  0  0  0  0  0  0  0  0
   -0.1471    3.4611    0.0442 H   0  0  0  0  0  0  0  0  0  0  0  0
   -0.7452   -0.2392    2.4878 H   0  0  0  0  0  0  0  0  0  0  0  0
    0.1598    1.3366    2.4871 H   0  0  0  0  0  0  0  0  0  0  0  0
   -1.4074    1.1886    3.3966 H   0  0  0  0  0  0  0  0  0  0  0  0
   -3.3936   -0.4881    0.9542 H   0  0  0  0  0  0  0  0  0  0  0  0
   -4.0544    0.9400    0.0453 H   0  0  0  0  0  0  0  0  0  0  0  0
   -4.0538    0.9404    1.8633 H   0  0  0  0  0  0  0  0  0  0  0  0
   -1.3603   -2.3469   -2.2466 H   0  0  0  0  0  0  0  0  0  0  0  0
   -2.2719   -1.8545   -0.7537 H   0  0  0  0  0  0  0  0  0  0  0  0
   -2.5118   -0.9422   -2.3078 H   0  0  0  0  0  0  0  0  0  0  0  0
    0.8811   -0.5537   -3.3369 H   0  0  0  0  0  0  0  0  0  0  0  0
    1.2961    0.9986   -2.4882 H   0  0  0  0  0  0  0  0  0  0  0  0
   -0.2717    0.8500   -3.3966 H   0  0  0  0  0  0  0  0  0  0  0  0
    3.2847   -3.2313    1.5360 H   0  0  0  0  0  0  0  0  0  0  0  0
    3.1306   -1.4230    1.6292 H   0  0  0  0  0  0  0  0  0  0  0  0
    1.8023   -2.4833    2.2750 H   0  0  0  0  0  0  0  0  0  0  0  0
    1.5125   -4.8244   -0.4002 H   0  0  0  0  0  0  0  0  0  0  0  0
    0.3111   -3.9584   -1.4533 H   0  0  0  0  0  0  0  0  0  0  0  0
    0.0313   -4.0747    0.3394 H   0  0  0  0  0  0  0  0  0  0  0  0
    2.8524   -1.2505   -2.1306 H   0  0  0  0  0  0  0  0  0  0  0  0
    4.0544   -2.1148   -1.0768 H   0  0  0  0  0  0  0  0  0  0  0  0
    3.0067   -3.0589   -2.2241 H   0  0  0  0  0  0  0  0  0  0  0  0
  1  2  1  0      
  1 15  1  0      
  1 16  1  0      
  1 17  1  0      
  2  3  1  0      
  3  4  1  0      
  3  5  1  0      
  3  6  1  0      
  4 18  1  0      
  4 19  1  0      
  4 20  1  0      
  5 21  1  0      
  5 22  1  0      
  5 23  1  0      
  6  7  1  0      
  7  8  1  0      
  7  9  1  0      
  7 10  1  0      
  8 24  1  0      
  8 25  1  0      
  8 26  1  0      
  9 27  1  0      
  9 28  1  0      
  9 29  1  0      
 10 11  1  0      
 11 12  1  0      
 11 13  1  0      
 11 14  1  0      
 12 30  1  0      
 12 31  1  0      
 12 32  1  0      
 13 33  1  0      
 13 34  1  0      
 13 35  1  0      
 14 36  1  0      
 14 37  1  0      
 14 38  1  0      
M  END
$$$$
