Fragment
  Chem3D Core 21.007272619323D

 66 67  0  0  0  0  0  0  0  0999 V2000
    2.2844    8.3720    5.8925 C   0  0  0  0  0  0  0  0  0  0  0  0
    1.5270    8.1653    4.7310 O   0  0  0  0  0  0  0  0  0  0  0  0
    2.4240    7.7762    3.7262 C   0  0  0  0  0  0  0  0  0  0  0  0
    1.6617    7.5343    2.4300 C   0  0  0  0  0  0  0  0  0  0  0  0
    2.6361    7.1116    1.3385 C   0  0  0  0  0  0  0  0  0  0  0  0
    1.8739    6.8698    0.0424 C   0  0  0  0  0  0  0  0  0  0  0  0
    2.7709    6.4806   -0.9624 O   0  0  0  0  0  0  0  0  0  0  0  0
    2.1092    6.2659   -2.1054 C   0  0  0  0  0  0  0  0  0  0  0  0
    2.7097    5.9210   -3.0952 O   0  0  0  0  0  0  0  0  0  0  0  0
    0.7518    6.4372   -2.1531 N   0  0  0  0  0  0  0  0  0  0  0  0
   -0.0662    5.4052   -1.8793 C   0  0  0  0  0  0  0  0  0  0  0  0
    0.4685    4.1606   -1.5468 C   0  0  0  0  0  0  0  0  0  0  0  0
   -0.3799    3.0904   -1.2630 C   0  0  0  0  0  0  0  0  0  0  0  0
   -1.7629    3.2649   -1.3116 C   0  0  0  0  0  0  0  0  0  0  0  0
   -2.2976    4.5095   -1.6440 C   0  0  0  0  0  0  0  0  0  0  0  0
   -1.4492    5.5797   -1.9279 C   0  0  0  0  0  0  0  0  0  0  0  0
   -2.6734    2.1164   -1.0070 C   0  0  0  0  0  0  0  0  0  0  0  0
   -1.8572    0.9040   -0.6828 C   0  0  0  0  0  0  0  0  0  0  0  0
   -2.0707   -0.2866   -1.3772 C   0  0  0  0  0  0  0  0  0  0  0  0
   -1.3103   -1.4162   -1.0750 C   0  0  0  0  0  0  0  0  0  0  0  0
   -0.3363   -1.3551   -0.0785 C   0  0  0  0  0  0  0  0  0  0  0  0
   -0.1227   -0.1644    0.6159 C   0  0  0  0  0  0  0  0  0  0  0  0
   -0.8832    0.9652    0.3138 C   0  0  0  0  0  0  0  0  0  0  0  0
    0.3970   -2.4443    0.2129 N   0  0  0  0  0  0  0  0  0  0  0  0
    0.1874   -3.6130   -0.4686 C   0  0  0  0  0  0  0  0  0  0  0  0
   -0.6155   -4.4164   -0.0574 O   0  0  0  0  0  0  0  0  0  0  0  0
    0.8718   -3.8653   -1.5903 O   0  0  0  0  0  0  0  0  0  0  0  0
    0.4935   -5.1112   -2.1101 C   0  0  0  0  0  0  0  0  0  0  0  0
    1.2776   -5.3891   -3.3859 C   0  0  0  0  0  0  0  0  0  0  0  0
    0.8666   -6.7425   -3.9506 C   0  0  0  0  0  0  0  0  0  0  0  0
    1.6507   -7.0204   -5.2263 C   0  0  0  0  0  0  0  0  0  0  0  0
    1.2397   -8.3738   -5.7910 C   0  0  0  0  0  0  0  0  0  0  0  0
    1.6129    8.6843    6.7233 H   0  0  0  0  0  0  0  0  0  0  0  0
    2.8023    7.4268    6.1701 H   0  0  0  0  0  0  0  0  0  0  0  0
    3.0390    9.1687    5.7063 H   0  0  0  0  0  0  0  0  0  0  0  0
    3.1761    8.5814    3.5689 H   0  0  0  0  0  0  0  0  0  0  0  0
    2.9407    6.8394    4.0328 H   0  0  0  0  0  0  0  0  0  0  0  0
    0.9096    6.7292    2.5873 H   0  0  0  0  0  0  0  0  0  0  0  0
    1.1450    8.4712    2.1233 H   0  0  0  0  0  0  0  0  0  0  0  0
    3.3883    7.9168    1.1812 H   0  0  0  0  0  0  0  0  0  0  0  0
    3.1529    6.1748    1.6452 H   0  0  0  0  0  0  0  0  0  0  0  0
    1.1218    6.0646    0.1996 H   0  0  0  0  0  0  0  0  0  0  0  0
    1.3572    7.8066   -0.2643 H   0  0  0  0  0  0  0  0  0  0  0  0
    0.3639    7.3402   -2.3943 H   0  0  0  0  0  0  0  0  0  0  0  0
    1.5592    4.0231   -1.5084 H   0  0  0  0  0  0  0  0  0  0  0  0
    0.0417    2.1089   -1.0009 H   0  0  0  0  0  0  0  0  0  0  0  0
   -3.3883    4.6471   -1.6823 H   0  0  0  0  0  0  0  0  0  0  0  0
   -1.8708    6.5613   -2.1901 H   0  0  0  0  0  0  0  0  0  0  0  0
   -3.3161    2.3741   -0.1357 H   0  0  0  0  0  0  0  0  0  0  0  0
   -3.3141    1.9061   -1.8925 H   0  0  0  0  0  0  0  0  0  0  0  0
   -2.8388   -0.3347   -2.1632 H   0  0  0  0  0  0  0  0  0  0  0  0
   -1.4787   -2.3552   -1.6226 H   0  0  0  0  0  0  0  0  0  0  0  0
    0.6455   -0.1162    1.4018 H   0  0  0  0  0  0  0  0  0  0  0  0
   -0.7148    1.9042    0.8614 H   0  0  0  0  0  0  0  0  0  0  0  0
    1.1037   -2.4000    0.9359 H   0  0  0  0  0  0  0  0  0  0  0  0
    0.7099   -5.9060   -1.3617 H   0  0  0  0  0  0  0  0  0  0  0  0
   -0.5957   -5.1023   -2.3388 H   0  0  0  0  0  0  0  0  0  0  0  0
    1.0611   -4.5942   -4.1343 H   0  0  0  0  0  0  0  0  0  0  0  0
    2.3668   -5.3979   -3.1572 H   0  0  0  0  0  0  0  0  0  0  0  0
    1.0830   -7.5374   -3.2021 H   0  0  0  0  0  0  0  0  0  0  0  0
   -0.2226   -6.7337   -4.1792 H   0  0  0  0  0  0  0  0  0  0  0  0
    1.4342   -6.2255   -5.9747 H   0  0  0  0  0  0  0  0  0  0  0  0
    2.7399   -7.0292   -4.9977 H   0  0  0  0  0  0  0  0  0  0  0  0
    1.8127   -8.5769   -6.7233 H   0  0  0  0  0  0  0  0  0  0  0  0
    1.4561   -9.1687   -5.0426 H   0  0  0  0  0  0  0  0  0  0  0  0
    0.1505   -8.3650   -6.0197 H   0  0  0  0  0  0  0  0  0  0  0  0
  1  2  1  0      
  1 33  1  0      
  1 34  1  0      
  1 35  1  0      
  2  3  1  0      
  3  4  1  0      
  3 36  1  0      
  3 37  1  0      
  4  5  1  0      
  4 38  1  0      
  4 39  1  0      
  5  6  1  0      
  5 40  1  0      
  5 41  1  0      
  6  7  1  0      
  6 42  1  0      
  6 43  1  0      
  7  8  1  0      
  8  9  2  0      
  8 10  1  0      
 10 11  1  0      
 10 44  1  0      
 11 12  1  0      
 11 16  2  0      
 12 13  2  0      
 12 45  1  0      
 13 14  1  0      
 13 46  1  0      
 14 15  2  0      
 14 17  1  0      
 15 16  1  0      
 15 47  1  0      
 16 48  1  0      
 17 18  1  0      
 17 49  1  0      
 17 50  1  0      
 18 19  1  0      
 18 23  2  0      
 19 20  2  0      
 19 51  1  0      
 20 21  1  0      
 20 52  1  0      
 21 22  2  0      
 21 24  1  0      
 22 23  1  0      
 22 53  1  0      
 23 54  1  0      
 24 25  1  0      
 24 55  1  0      
 25 26  2  0      
 25 27  1  0      
 27 28  1  0      
 28 29  1  0      
 28 56  1  0      
 28 57  1  0      
 29 30  1  0      
 29 58  1  0      
 29 59  1  0      
 30 31  1  0      
 30 60  1  0      
 30 61  1  0      
 31 32  1  0      
 31 62  1  0      
 31 63  1  0      
 32 64  1  0      
 32 65  1  0      
 32 66  1  0      
M  END
$$$$
