Fragment
  Chem3D Core 21.007272619323D

182187  0  0  0  0  0  0  0  0999 V2000
    7.6612   25.4872    9.5037 C   0  0  0  0  0  0  0  0  0  0  0  0
    6.9038   25.2805    8.3422 O   0  0  0  0  0  0  0  0  0  0  0  0
    7.8008   24.8914    7.3374 C   0  0  0  0  0  0  0  0  0  0  0  0
    7.0385   24.6495    6.0412 C   0  0  0  0  0  0  0  0  0  0  0  0
    8.0129   24.2268    4.9497 C   0  0  0  0  0  0  0  0  0  0  0  0
    7.2507   23.9849    3.6536 C   0  0  0  0  0  0  0  0  0  0  0  0
    8.1477   23.5958    2.6488 O   0  0  0  0  0  0  0  0  0  0  0  0
    7.4860   23.3811    1.5058 C   0  0  0  0  0  0  0  0  0  0  0  0
    8.0865   23.0361    0.5160 O   0  0  0  0  0  0  0  0  0  0  0  0
    6.1286   23.5523    1.4581 N   0  0  0  0  0  0  0  0  0  0  0  0
    5.3106   22.5204    1.7319 C   0  0  0  0  0  0  0  0  0  0  0  0
    5.8453   21.2758    2.0644 C   0  0  0  0  0  0  0  0  0  0  0  0
    4.9969   20.2056    2.3482 C   0  0  0  0  0  0  0  0  0  0  0  0
    3.6139   20.3801    2.2996 C   0  0  0  0  0  0  0  0  0  0  0  0
    3.0792   21.6247    1.9672 C   0  0  0  0  0  0  0  0  0  0  0  0
    3.9276   22.6949    1.6833 C   0  0  0  0  0  0  0  0  0  0  0  0
    2.7034   19.2315    2.6042 C   0  0  0  0  0  0  0  0  0  0  0  0
    3.5196   18.0192    2.9284 C   0  0  0  0  0  0  0  0  0  0  0  0
    3.3061   16.8285    2.2340 C   0  0  0  0  0  0  0  0  0  0  0  0
    4.0665   15.6989    2.5362 C   0  0  0  0  0  0  0  0  0  0  0  0
    5.0405   15.7601    3.5327 C   0  0  0  0  0  0  0  0  0  0  0  0
    5.2541   16.9507    4.2271 C   0  0  0  0  0  0  0  0  0  0  0  0
    4.4936   18.0803    3.9250 C   0  0  0  0  0  0  0  0  0  0  0  0
    5.7738   14.6708    3.8241 N   0  0  0  0  0  0  0  0  0  0  0  0
    5.5642   13.5022    3.1426 C   0  0  0  0  0  0  0  0  0  0  0  0
    4.7613   12.6988    3.5539 O   0  0  0  0  0  0  0  0  0  0  0  0
    6.2486   13.2498    2.0209 O   0  0  0  0  0  0  0  0  0  0  0  0
    5.8703   12.0039    1.5011 C   0  0  0  0  0  0  0  0  0  0  0  0
    6.6543   11.7261    0.2253 C   0  0  0  0  0  0  0  0  0  0  0  0
    6.2434   10.3726   -0.3393 C   0  0  0  0  0  0  0  0  0  0  0  0
    7.0274   10.0947   -1.6151 C   0  0  0  0  0  0  0  0  0  0  0  0
    6.6491    8.8488   -2.1349 O   0  0  0  0  0  0  0  0  0  0  0  0
    7.4011    8.6513   -3.3016 C   0  0  0  0  0  0  0  0  0  0  0  0
    7.0366    7.3081   -3.9200 C   0  0  0  0  0  0  0  0  0  0  0  0
    7.8534    7.0935   -5.1874 C   0  0  0  0  0  0  0  0  0  0  0  0
    7.4889    5.7502   -5.8058 C   0  0  0  0  0  0  0  0  0  0  0  0
    8.2408    5.5527   -6.9725 O   0  0  0  0  0  0  0  0  0  0  0  0
    7.9268    4.3742   -7.5227 C   0  0  0  0  0  0  0  0  0  0  0  0
    8.4706    4.0190   -8.5412 O   0  0  0  0  0  0  0  0  0  0  0  0
    6.9891    3.5709   -6.9313 N   0  0  0  0  0  0  0  0  0  0  0  0
    6.6734    2.3862   -7.4844 C   0  0  0  0  0  0  0  0  0  0  0  0
    5.3595    1.9208   -7.4334 C   0  0  0  0  0  0  0  0  0  0  0  0
    5.0321    0.6921   -8.0068 C   0  0  0  0  0  0  0  0  0  0  0  0
    6.0186   -0.0710   -8.6313 C   0  0  0  0  0  0  0  0  0  0  0  0
    7.3325    0.3945   -8.6824 C   0  0  0  0  0  0  0  0  0  0  0  0
    7.6599    1.6231   -8.1089 C   0  0  0  0  0  0  0  0  0  0  0  0
    5.6672   -1.3896   -9.2468 C   0  0  0  0  0  0  0  0  0  0  0  0
    4.2063   -1.6559   -9.0576 C   0  0  0  0  0  0  0  0  0  0  0  0
    3.7855   -2.8454   -8.4630 C   0  0  0  0  0  0  0  0  0  0  0  0
    2.4242   -3.0935   -8.2869 C   0  0  0  0  0  0  0  0  0  0  0  0
    1.4839   -2.1521   -8.7052 C   0  0  0  0  0  0  0  0  0  0  0  0
    1.9047   -0.9626   -9.2997 C   0  0  0  0  0  0  0  0  0  0  0  0
    3.2659   -0.7145   -9.4759 C   0  0  0  0  0  0  0  0  0  0  0  0
    0.1713   -2.3914   -8.5353 N   0  0  0  0  0  0  0  0  0  0  0  0
   -0.2418   -3.5589   -7.9518 C   0  0  0  0  0  0  0  0  0  0  0  0
   -0.4625   -4.5305   -8.6349 O   0  0  0  0  0  0  0  0  0  0  0  0
   -0.4009   -3.6239   -6.6249 O   0  0  0  0  0  0  0  0  0  0  0  0
   -0.8264   -4.9083   -6.2577 C   0  0  0  0  0  0  0  0  0  0  0  0
   -1.0046   -4.9721   -4.7465 C   0  0  0  0  0  0  0  0  0  0  0  0
   -1.4668   -6.3674   -4.3475 C   0  0  0  0  0  0  0  0  0  0  0  0
   -1.6451   -6.4312   -2.8363 C   0  0  0  0  0  0  0  0  0  0  0  0
   -2.0705   -7.7156   -2.4691 O   0  0  0  0  0  0  0  0  0  0  0  0
   -2.2159   -7.7110   -1.0746 C   0  0  0  0  0  0  0  0  0  0  0  0
   -2.6788   -9.0846   -0.6073 C   0  0  0  0  0  0  0  0  0  0  0  0
   -2.8367   -9.0797    0.9075 C   0  0  0  0  0  0  0  0  0  0  0  0
   -3.2996  -10.4533    1.3749 C   0  0  0  0  0  0  0  0  0  0  0  0
   -3.4449  -10.4488    2.7693 O   0  0  0  0  0  0  0  0  0  0  0  0
   -3.8516  -11.6525    3.1887 C   0  0  0  0  0  0  0  0  0  0  0  0
   -4.0354  -11.8516    4.3660 O   0  0  0  0  0  0  0  0  0  0  0  0
   -4.0594  -12.6585    2.2838 N   0  0  0  0  0  0  0  0  0  0  0  0
   -4.4682  -13.8685    2.7054 C   0  0  0  0  0  0  0  0  0  0  0  0
   -4.0035  -15.0212    2.0724 C   0  0  0  0  0  0  0  0  0  0  0  0
   -4.4276  -16.2761    2.5096 C   0  0  0  0  0  0  0  0  0  0  0  0
   -5.3162  -16.3781    3.5798 C   0  0  0  0  0  0  0  0  0  0  0  0
   -5.7808  -15.2254    4.2129 C   0  0  0  0  0  0  0  0  0  0  0  0
   -5.3568  -13.9705    3.7757 C   0  0  0  0  0  0  0  0  0  0  0  0
   -5.7713  -17.7249    4.0490 C   0  0  0  0  0  0  0  0  0  0  0  0
   -5.1328  -18.7881    3.2107 C   0  0  0  0  0  0  0  0  0  0  0  0
   -5.9246  -19.7446    2.5754 C   0  0  0  0  0  0  0  0  0  0  0  0
   -5.3296  -20.7354    1.7944 C   0  0  0  0  0  0  0  0  0  0  0  0
   -3.9429  -20.7696    1.6487 C   0  0  0  0  0  0  0  0  0  0  0  0
   -3.1510  -19.8131    2.2839 C   0  0  0  0  0  0  0  0  0  0  0  0
   -3.7460  -18.8223    3.0650 C   0  0  0  0  0  0  0  0  0  0  0  0
   -3.3692  -21.7250    0.8956 N   0  0  0  0  0  0  0  0  0  0  0  0
   -4.1464  -22.6638    0.2721 C   0  0  0  0  0  0  0  0  0  0  0  0
   -4.4162  -23.6967    0.8375 O   0  0  0  0  0  0  0  0  0  0  0  0
   -4.6071  -22.4374   -0.9635 O   0  0  0  0  0  0  0  0  0  0  0  0
   -5.3735  -23.5293   -1.3946 C   0  0  0  0  0  0  0  0  0  0  0  0
   -5.8931  -23.2622   -2.8011 C   0  0  0  0  0  0  0  0  0  0  0  0
   -6.7256  -24.4484   -3.2694 C   0  0  0  0  0  0  0  0  0  0  0  0
   -7.2452  -24.1812   -4.6759 C   0  0  0  0  0  0  0  0  0  0  0  0
   -8.0777  -25.3674   -5.1442 C   0  0  0  0  0  0  0  0  0  0  0  0
    6.9896   25.7994   10.3345 H   0  0  0  0  0  0  0  0  0  0  0  0
    8.1791   24.5419    9.7813 H   0  0  0  0  0  0  0  0  0  0  0  0
    8.4158   26.2838    9.3175 H   0  0  0  0  0  0  0  0  0  0  0  0
    8.5529   25.6965    7.1801 H   0  0  0  0  0  0  0  0  0  0  0  0
    8.3175   23.9545    7.6441 H   0  0  0  0  0  0  0  0  0  0  0  0
    6.2864   23.8443    6.1985 H   0  0  0  0  0  0  0  0  0  0  0  0
    6.5218   25.5863    5.7346 H   0  0  0  0  0  0  0  0  0  0  0  0
    8.7651   25.0320    4.7925 H   0  0  0  0  0  0  0  0  0  0  0  0
    8.5297   23.2899    5.2564 H   0  0  0  0  0  0  0  0  0  0  0  0
    6.4985   23.1797    3.8109 H   0  0  0  0  0  0  0  0  0  0  0  0
    6.7340   24.9218    3.3469 H   0  0  0  0  0  0  0  0  0  0  0  0
    5.7407   24.4553    1.2169 H   0  0  0  0  0  0  0  0  0  0  0  0
    6.9360   21.1382    2.1028 H   0  0  0  0  0  0  0  0  0  0  0  0
    5.4185   19.2240    2.6103 H   0  0  0  0  0  0  0  0  0  0  0  0
    1.9885   21.7623    1.9289 H   0  0  0  0  0  0  0  0  0  0  0  0
    3.5060   23.6764    1.4211 H   0  0  0  0  0  0  0  0  0  0  0  0
    2.0607   19.4892    3.4755 H   0  0  0  0  0  0  0  0  0  0  0  0
    2.0627   19.0212    1.7187 H   0  0  0  0  0  0  0  0  0  0  0  0
    2.5380   16.7804    1.4480 H   0  0  0  0  0  0  0  0  0  0  0  0
    3.8981   14.7599    1.9886 H   0  0  0  0  0  0  0  0  0  0  0  0
    6.0223   16.9989    5.0130 H   0  0  0  0  0  0  0  0  0  0  0  0
    4.6620   19.0193    4.4726 H   0  0  0  0  0  0  0  0  0  0  0  0
    6.4805   14.7151    4.5471 H   0  0  0  0  0  0  0  0  0  0  0  0
    6.0867   11.2091    2.2495 H   0  0  0  0  0  0  0  0  0  0  0  0
    4.7811   12.0128    1.2724 H   0  0  0  0  0  0  0  0  0  0  0  0
    6.4379   12.5209   -0.5231 H   0  0  0  0  0  0  0  0  0  0  0  0
    7.7436   11.7172    0.4540 H   0  0  0  0  0  0  0  0  0  0  0  0
    6.4598    9.5778    0.4091 H   0  0  0  0  0  0  0  0  0  0  0  0
    5.1542   10.3815   -0.5680 H   0  0  0  0  0  0  0  0  0  0  0  0
    6.8110   10.8896   -2.3635 H   0  0  0  0  0  0  0  0  0  0  0  0
    8.1167   10.0859   -1.3864 H   0  0  0  0  0  0  0  0  0  0  0  0
    7.1796    9.4656   -4.0274 H   0  0  0  0  0  0  0  0  0  0  0  0
    8.4853    8.6619   -3.0503 H   0  0  0  0  0  0  0  0  0  0  0  0
    7.2580    6.4938   -3.1942 H   0  0  0  0  0  0  0  0  0  0  0  0
    5.9524    7.2975   -4.1713 H   0  0  0  0  0  0  0  0  0  0  0  0
    7.6319    7.9077   -5.9132 H   0  0  0  0  0  0  0  0  0  0  0  0
    8.9376    7.1040   -4.9361 H   0  0  0  0  0  0  0  0  0  0  0  0
    7.7104    4.9360   -5.0800 H   0  0  0  0  0  0  0  0  0  0  0  0
    6.4047    5.7397   -6.0571 H   0  0  0  0  0  0  0  0  0  0  0  0
    6.5335    3.8685   -6.0781 H   0  0  0  0  0  0  0  0  0  0  0  0
    4.5815    2.5227   -6.9409 H   0  0  0  0  0  0  0  0  0  0  0  0
    3.9960    0.3250   -7.9665 H   0  0  0  0  0  0  0  0  0  0  0  0
    8.1104   -0.2074   -9.1749 H   0  0  0  0  0  0  0  0  0  0  0  0
    8.6960    1.9902   -8.1491 H   0  0  0  0  0  0  0  0  0  0  0  0
    5.9015   -1.3649  -10.3345 H   0  0  0  0  0  0  0  0  0  0  0  0
    6.2576   -2.1963   -8.7574 H   0  0  0  0  0  0  0  0  0  0  0  0
    4.5271   -3.5877   -8.1330 H   0  0  0  0  0  0  0  0  0  0  0  0
    2.0923   -4.0316   -7.8180 H   0  0  0  0  0  0  0  0  0  0  0  0
    1.1630   -0.2202   -9.6295 H   0  0  0  0  0  0  0  0  0  0  0  0
    3.5978    0.2236   -9.9448 H   0  0  0  0  0  0  0  0  0  0  0  0
   -0.5110   -1.7084   -8.8388 H   0  0  0  0  0  0  0  0  0  0  0  0
   -1.7964   -5.1335   -6.7549 H   0  0  0  0  0  0  0  0  0  0  0  0
   -0.0644   -5.6557   -6.5731 H   0  0  0  0  0  0  0  0  0  0  0  0
   -0.0347   -4.7469   -4.2492 H   0  0  0  0  0  0  0  0  0  0  0  0
   -1.7666   -4.2247   -4.4311 H   0  0  0  0  0  0  0  0  0  0  0  0
   -2.4368   -6.5926   -4.8448 H   0  0  0  0  0  0  0  0  0  0  0  0
   -0.7048   -7.1148   -4.6629 H   0  0  0  0  0  0  0  0  0  0  0  0
   -0.6751   -6.2059   -2.3391 H   0  0  0  0  0  0  0  0  0  0  0  0
   -2.4071   -5.6837   -2.5209 H   0  0  0  0  0  0  0  0  0  0  0  0
   -1.2383   -7.4686   -0.6011 H   0  0  0  0  0  0  0  0  0  0  0  0
   -2.9702   -6.9464   -0.7829 H   0  0  0  0  0  0  0  0  0  0  0  0
   -3.6564   -9.3271   -1.0809 H   0  0  0  0  0  0  0  0  0  0  0  0
   -1.9244   -9.8492   -0.8990 H   0  0  0  0  0  0  0  0  0  0  0  0
   -1.8591   -8.8373    1.3811 H   0  0  0  0  0  0  0  0  0  0  0  0
   -3.5910   -8.3151    1.1992 H   0  0  0  0  0  0  0  0  0  0  0  0
   -4.2772  -10.6957    0.9013 H   0  0  0  0  0  0  0  0  0  0  0  0
   -2.5452  -11.2179    1.0832 H   0  0  0  0  0  0  0  0  0  0  0  0
   -3.9054  -12.4917    1.2976 H   0  0  0  0  0  0  0  0  0  0  0  0
   -3.3026  -14.9408    1.2284 H   0  0  0  0  0  0  0  0  0  0  0  0
   -4.0612  -17.1852    2.0103 H   0  0  0  0  0  0  0  0  0  0  0  0
   -6.4815  -15.3059    5.0570 H   0  0  0  0  0  0  0  0  0  0  0  0
   -5.7232  -13.0614    4.2749 H   0  0  0  0  0  0  0  0  0  0  0  0
   -5.4768  -17.8654    5.1131 H   0  0  0  0  0  0  0  0  0  0  0  0
   -6.8782  -17.7950    3.9571 H   0  0  0  0  0  0  0  0  0  0  0  0
   -7.0183  -19.7176    2.6903 H   0  0  0  0  0  0  0  0  0  0  0  0
   -5.9541  -21.4898    1.2935 H   0  0  0  0  0  0  0  0  0  0  0  0
   -2.0574  -19.8400    2.1689 H   0  0  0  0  0  0  0  0  0  0  0  0
   -3.1216  -18.0680    3.5660 H   0  0  0  0  0  0  0  0  0  0  0  0
   -2.3630  -21.7498    0.7898 H   0  0  0  0  0  0  0  0  0  0  0  0
   -4.7419  -24.4458   -1.4009 H   0  0  0  0  0  0  0  0  0  0  0  0
   -6.2334  -23.6750   -0.7031 H   0  0  0  0  0  0  0  0  0  0  0  0
   -6.5246  -22.3457   -2.7948 H   0  0  0  0  0  0  0  0  0  0  0  0
   -5.0332  -23.1165   -3.4926 H   0  0  0  0  0  0  0  0  0  0  0  0
   -6.0941  -25.3648   -3.2756 H   0  0  0  0  0  0  0  0  0  0  0  0
   -7.5855  -24.5940   -2.5779 H   0  0  0  0  0  0  0  0  0  0  0  0
   -7.8768  -23.2647   -4.6696 H   0  0  0  0  0  0  0  0  0  0  0  0
   -6.3853  -24.0355   -5.3674 H   0  0  0  0  0  0  0  0  0  0  0  0
   -8.4574  -25.1721   -6.1720 H   0  0  0  0  0  0  0  0  0  0  0  0
   -7.4462  -26.2838   -5.1504 H   0  0  0  0  0  0  0  0  0  0  0  0
   -8.9376  -25.5130   -4.4526 H   0  0  0  0  0  0  0  0  0  0  0  0
  1  2  1  0      
  1 93  1  0      
  1 94  1  0      
  1 95  1  0      
  2  3  1  0      
  3  4  1  0      
  3 96  1  0      
  3 97  1  0      
  4  5  1  0      
  4 98  1  0      
  4 99  1  0      
  5  6  1  0      
  5100  1  0      
  5101  1  0      
  6  7  1  0      
  6102  1  0      
  6103  1  0      
  7  8  1  0      
  8  9  2  0      
  8 10  1  0      
 10 11  1  0      
 10104  1  0      
 11 12  1  0      
 11 16  2  0      
 12 13  2  0      
 12105  1  0      
 13 14  1  0      
 13106  1  0      
 14 15  2  0      
 14 17  1  0      
 15 16  1  0      
 15107  1  0      
 16108  1  0      
 17 18  1  0      
 17109  1  0      
 17110  1  0      
 18 19  1  0      
 18 23  2  0      
 19 20  2  0      
 19111  1  0      
 20 21  1  0      
 20112  1  0      
 21 22  2  0      
 21 24  1  0      
 22 23  1  0      
 22113  1  0      
 23114  1  0      
 24 25  1  0      
 24115  1  0      
 25 26  2  0      
 25 27  1  0      
 27 28  1  0      
 28 29  1  0      
 28116  1  0      
 28117  1  0      
 29 30  1  0      
 29118  1  0      
 29119  1  0      
 30 31  1  0      
 30120  1  0      
 30121  1  0      
 31 32  1  0      
 31122  1  0      
 31123  1  0      
 32 33  1  0      
 33 34  1  0      
 33124  1  0      
 33125  1  0      
 34 35  1  0      
 34126  1  0      
 34127  1  0      
 35 36  1  0      
 35128  1  0      
 35129  1  0      
 36 37  1  0      
 36130  1  0      
 36131  1  0      
 37 38  1  0      
 38 39  2  0      
 38 40  1  0      
 40 41  1  0      
 40132  1  0      
 41 42  1  0      
 41 46  2  0      
 42 43  2  0      
 42133  1  0      
 43 44  1  0      
 43134  1  0      
 44 45  2  0      
 44 47  1  0      
 45 46  1  0      
 45135  1  0      
 46136  1  0      
 47 48  1  0      
 47137  1  0      
 47138  1  0      
 48 49  1  0      
 48 53  2  0      
 49 50  2  0      
 49139  1  0      
 50 51  1  0      
 50140  1  0      
 51 52  2  0      
 51 54  1  0      
 52 53  1  0      
 52141  1  0      
 53142  1  0      
 54 55  1  0      
 54143  1  0      
 55 56  2  0      
 55 57  1  0      
 57 58  1  0      
 58 59  1  0      
 58144  1  0      
 58145  1  0      
 59 60  1  0      
 59146  1  0      
 59147  1  0      
 60 61  1  0      
 60148  1  0      
 60149  1  0      
 61 62  1  0      
 61150  1  0      
 61151  1  0      
 62 63  1  0      
 63 64  1  0      
 63152  1  0      
 63153  1  0      
 64 65  1  0      
 64154  1  0      
 64155  1  0      
 65 66  1  0      
 65156  1  0      
 65157  1  0      
 66 67  1  0      
 66158  1  0      
 66159  1  0      
 67 68  1  0      
 68 69  2  0      
 68 70  1  0      
 70 71  1  0      
 70160  1  0      
 71 72  1  0      
 71 76  2  0      
 72 73  2  0      
 72161  1  0      
 73 74  1  0      
 73162  1  0      
 74 75  2  0      
 74 77  1  0      
 75 76  1  0      
 75163  1  0      
 76164  1  0      
 77 78  1  0      
 77165  1  0      
 77166  1  0      
 78 79  1  0      
 78 83  2  0      
 79 80  2  0      
 79167  1  0      
 80 81  1  0      
 80168  1  0      
 81 82  2  0      
 81 84  1  0      
 82 83  1  0      
 82169  1  0      
 83170  1  0      
 84 85  1  0      
 84171  1  0      
 85 86  2  0      
 85 87  1  0      
 87 88  1  0      
 88 89  1  0      
 88172  1  0      
 88173  1  0      
 89 90  1  0      
 89174  1  0      
 89175  1  0      
 90 91  1  0      
 90176  1  0      
 90177  1  0      
 91 92  1  0      
 91178  1  0      
 91179  1  0      
 92180  1  0      
 92181  1  0      
 92182  1  0      
M  END
$$$$
