Fragment
  Chem3D Core 21.007272619333D

 65 64  0  0  0  0  0  0  0  0999 V2000
   10.6772    0.8126    3.1533 C   0  0  0  0  0  0  0  0  0  0  0  0
    9.4629    1.5135    3.1533 O   0  0  0  0  0  0  0  0  0  0  0  0
    8.4410    0.5536    3.1533 C   0  0  0  0  0  0  0  0  0  0  0  0
    8.5619   -0.3177    4.3967 C   0  0  0  0  0  0  0  0  0  0  0  0
    7.0883    1.2533    3.1543 C   0  0  0  0  0  0  0  0  0  0  0  0
    6.3685    0.8820    2.0099 O   0  0  0  0  0  0  0  0  0  0  0  0
    5.1780    1.4925    2.0026 C   0  0  0  0  0  0  0  0  0  0  0  0
    4.4063    1.3006    1.0932 O   0  0  0  0  0  0  0  0  0  0  0  0
    4.8389    2.3237    3.0123 C   0  0  0  0  0  0  0  0  0  0  0  0
    3.6492    2.9338    3.0050 C   0  0  0  0  0  0  0  0  0  0  0  0
    2.7862    2.7192    1.9879 C   0  0  0  0  0  0  0  0  0  0  0  0
    2.8164    3.4282    1.0104 O   0  0  0  0  0  0  0  0  0  0  0  0
    1.8981    1.7213    2.0635 O   0  0  0  0  0  0  0  0  0  0  0  0
    1.1141    1.6912    0.9015 C   0  0  0  0  0  0  0  0  0  0  0  0
    2.0102    1.4749   -0.3108 C   0  0  0  0  0  0  0  0  0  0  0  0
    0.1081    0.5518    0.9981 C   0  0  0  0  0  0  0  0  0  0  0  0
   -1.1929    1.0686    0.9227 O   0  0  0  0  0  0  0  0  0  0  0  0
   -2.0837    0.0738    1.0068 C   0  0  0  0  0  0  0  0  0  0  0  0
   -3.2662    0.3165    0.9612 O   0  0  0  0  0  0  0  0  0  0  0  0
   -1.6607   -1.2020    1.1428 C   0  0  0  0  0  0  0  0  0  0  0  0
   -2.5508   -2.1961    1.2269 C   0  0  0  0  0  0  0  0  0  0  0  0
   -3.8733   -1.9247    1.1758 C   0  0  0  0  0  0  0  0  0  0  0  0
   -4.4833   -1.6987    2.1937 O   0  0  0  0  0  0  0  0  0  0  0  0
   -4.5075   -1.9064   -0.0022 O   0  0  0  0  0  0  0  0  0  0  0  0
   -5.8630   -1.6045    0.1902 C   0  0  0  0  0  0  0  0  0  0  0  0
   -5.9908   -0.2380    0.8504 C   0  0  0  0  0  0  0  0  0  0  0  0
   -6.5742   -1.5855   -1.1564 C   0  0  0  0  0  0  0  0  0  0  0  0
   -7.5945   -2.5470   -1.1605 O   0  0  0  0  0  0  0  0  0  0  0  0
   -8.2250   -2.5371   -2.3406 C   0  0  0  0  0  0  0  0  0  0  0  0
   -9.1408   -3.2985   -2.5425 O   0  0  0  0  0  0  0  0  0  0  0  0
   -7.8373   -1.6756   -3.3063 C   0  0  0  0  0  0  0  0  0  0  0  0
   -8.4673   -1.6656   -4.4856 C   0  0  0  0  0  0  0  0  0  0  0  0
   -9.4916   -2.5172   -4.7114 C   0  0  0  0  0  0  0  0  0  0  0  0
   -9.2764   -3.6105   -5.1779 O   0  0  0  0  0  0  0  0  0  0  0  0
  -10.9043   -2.1026   -4.3809 C   0  0  0  0  0  0  0  0  0  0  0  0
   11.5234    1.5356    3.1533 H   0  0  0  0  0  0  0  0  0  0  0  0
   10.7360    0.1734    4.0626 H   0  0  0  0  0  0  0  0  0  0  0  0
   10.7361    0.1728    2.2445 H   0  0  0  0  0  0  0  0  0  0  0  0
    8.5300   -0.0827    2.2445 H   0  0  0  0  0  0  0  0  0  0  0  0
    7.7507   -1.0797    4.3967 H   0  0  0  0  0  0  0  0  0  0  0  0
    9.5505   -0.8290    4.3960 H   0  0  0  0  0  0  0  0  0  0  0  0
    8.4730    0.3187    5.3055 H   0  0  0  0  0  0  0  0  0  0  0  0
    6.5183    0.9565    4.0630 H   0  0  0  0  0  0  0  0  0  0  0  0
    7.2411    2.3558    3.1547 H   0  0  0  0  0  0  0  0  0  0  0  0
    5.5416    2.4984    3.8403 H   0  0  0  0  0  0  0  0  0  0  0  0
    3.3731    3.6105    3.8271 H   0  0  0  0  0  0  0  0  0  0  0  0
    0.5724    2.6576    0.7946 H   0  0  0  0  0  0  0  0  0  0  0  0
    1.3879    1.4510   -1.2333 H   0  0  0  0  0  0  0  0  0  0  0  0
    2.7454    2.3075   -0.3814 H   0  0  0  0  0  0  0  0  0  0  0  0
    2.5519    0.5085   -0.2038 H   0  0  0  0  0  0  0  0  0  0  0  0
    0.2731   -0.1602    0.1587 H   0  0  0  0  0  0  0  0  0  0  0  0
    0.2408    0.0212    1.9674 H   0  0  0  0  0  0  0  0  0  0  0  0
   -0.5839   -1.4229    1.1844 H   0  0  0  0  0  0  0  0  0  0  0  0
   -2.2064   -3.2349    1.3376 H   0  0  0  0  0  0  0  0  0  0  0  0
   -6.3257   -2.3771    0.8442 H   0  0  0  0  0  0  0  0  0  0  0  0
   -7.0669    0.0016    1.0031 H   0  0  0  0  0  0  0  0  0  0  0  0
   -5.4711   -0.2519    1.8345 H   0  0  0  0  0  0  0  0  0  0  0  0
   -5.5281    0.5346    0.1963 H   0  0  0  0  0  0  0  0  0  0  0  0
   -7.0142   -0.5777   -1.3288 H   0  0  0  0  0  0  0  0  0  0  0  0
   -5.8444   -1.8158   -1.9646 H   0  0  0  0  0  0  0  0  0  0  0  0
   -7.0034   -0.9822   -3.1225 H   0  0  0  0  0  0  0  0  0  0  0  0
   -8.1517   -0.9642   -5.2719 H   0  0  0  0  0  0  0  0  0  0  0  0
  -10.9008   -1.0705   -3.9643 H   0  0  0  0  0  0  0  0  0  0  0  0
  -11.5234   -2.1268   -5.3055 H   0  0  0  0  0  0  0  0  0  0  0  0
  -11.3305   -2.8043   -3.6294 H   0  0  0  0  0  0  0  0  0  0  0  0
  1  2  1  0      
  1 36  1  0      
  1 37  1  0      
  1 38  1  0      
  2  3  1  0      
  3  4  1  0      
  3  5  1  0      
  3 39  1  0      
  4 40  1  0      
  4 41  1  0      
  4 42  1  0      
  5  6  1  0      
  5 43  1  0      
  5 44  1  0      
  6  7  1  0      
  7  8  2  0      
  7  9  1  0      
  9 10  2  0      
  9 45  1  0      
 10 11  1  0      
 10 46  1  0      
 11 12  2  0      
 11 13  1  0      
 13 14  1  0      
 14 15  1  0      
 14 16  1  0      
 14 47  1  0      
 15 48  1  0      
 15 49  1  0      
 15 50  1  0      
 16 17  1  0      
 16 51  1  0      
 16 52  1  0      
 17 18  1  0      
 18 19  2  0      
 18 20  1  0      
 20 21  2  0      
 20 53  1  0      
 21 22  1  0      
 21 54  1  0      
 22 23  2  0      
 22 24  1  0      
 24 25  1  0      
 25 26  1  0      
 25 27  1  0      
 25 55  1  0      
 26 56  1  0      
 26 57  1  0      
 26 58  1  0      
 27 28  1  0      
 27 59  1  0      
 27 60  1  0      
 28 29  1  0      
 29 30  2  0      
 29 31  1  0      
 31 32  2  0      
 31 61  1  0      
 32 33  1  0      
 32 62  1  0      
 33 34  2  0      
 33 35  1  0      
 35 63  1  0      
 35 64  1  0      
 35 65  1  0      
M  END
$$$$
