Fragment
  Chem3D Core 21.007272619333D

 27 26  0  0  0  0  0  0  0  0999 V2000
    4.5384   -0.4533   -0.0046 C   0  0  0  0  0  0  0  0  0  0  0  0
    3.3242    0.2476   -0.0046 O   0  0  0  0  0  0  0  0  0  0  0  0
    2.3022   -0.7121   -0.0046 C   0  0  0  0  0  0  0  0  0  0  0  0
    2.4230   -1.5834    1.2387 C   0  0  0  0  0  0  0  0  0  0  0  0
    0.9495   -0.0122   -0.0037 C   0  0  0  0  0  0  0  0  0  0  0  0
    0.2297   -0.3835   -1.1480 O   0  0  0  0  0  0  0  0  0  0  0  0
   -0.9608    0.2272   -1.1553 C   0  0  0  0  0  0  0  0  0  0  0  0
   -1.7325    0.0353   -2.0647 O   0  0  0  0  0  0  0  0  0  0  0  0
   -1.2998    1.0583   -0.1457 C   0  0  0  0  0  0  0  0  0  0  0  0
   -2.4894    1.6686   -0.1529 C   0  0  0  0  0  0  0  0  0  0  0  0
   -3.3524    1.4540   -1.1700 C   0  0  0  0  0  0  0  0  0  0  0  0
   -3.3221    2.1630   -2.1476 O   0  0  0  0  0  0  0  0  0  0  0  0
   -4.3542    0.3287   -1.0848 C   0  0  0  0  0  0  0  0  0  0  0  0
    5.3847    0.2695   -0.0046 H   0  0  0  0  0  0  0  0  0  0  0  0
    4.5971   -1.0925    0.9047 H   0  0  0  0  0  0  0  0  0  0  0  0
    4.5972   -1.0932   -0.9134 H   0  0  0  0  0  0  0  0  0  0  0  0
    2.3911   -1.3484   -0.9134 H   0  0  0  0  0  0  0  0  0  0  0  0
    1.6117   -2.3453    1.2387 H   0  0  0  0  0  0  0  0  0  0  0  0
    3.4115   -2.0949    1.2381 H   0  0  0  0  0  0  0  0  0  0  0  0
    2.3341   -0.9471    2.1476 H   0  0  0  0  0  0  0  0  0  0  0  0
    0.3795   -0.3090    0.9051 H   0  0  0  0  0  0  0  0  0  0  0  0
    1.1024    1.0902   -0.0032 H   0  0  0  0  0  0  0  0  0  0  0  0
   -0.5971    1.2330    0.6824 H   0  0  0  0  0  0  0  0  0  0  0  0
   -2.7654    2.3453    0.6691 H   0  0  0  0  0  0  0  0  0  0  0  0
   -4.2291   -0.2076   -0.1176 H   0  0  0  0  0  0  0  0  0  0  0  0
   -5.3847    0.7446   -1.1471 H   0  0  0  0  0  0  0  0  0  0  0  0
   -4.1878   -0.3804   -1.9263 H   0  0  0  0  0  0  0  0  0  0  0  0
  1  2  1  0      
  1 14  1  0      
  1 15  1  0      
  1 16  1  0      
  2  3  1  0      
  3  4  1  0      
  3  5  1  0      
  3 17  1  0      
  4 18  1  0      
  4 19  1  0      
  4 20  1  0      
  5  6  1  0      
  5 21  1  0      
  5 22  1  0      
  6  7  1  0      
  7  8  2  0      
  7  9  1  0      
  9 10  2  0      
  9 23  1  0      
 10 11  1  0      
 10 24  1  0      
 11 12  2  0      
 11 13  1  0      
 13 25  1  0      
 13 26  1  0      
 13 27  1  0      
M  END
$$$$
