Fragment
  Chem3D Core 21.007272619303D

 29 29  0  0  0  0  0  0  0  0999 V2000
   -1.9958   -0.2815   -1.7455 C   0  0  0  0  0  0  0  0  0  0  0  0
   -1.2313   -1.1690   -0.9752 O   0  0  0  0  0  0  0  0  0  0  0  0
   -1.0376   -0.5595    0.2724 C   0  0  0  0  0  0  0  0  0  0  0  0
   -0.2079   -1.4841    1.1570 C   0  0  0  0  0  0  0  0  0  0  0  0
   -0.1950   -0.9803    2.4652 O   0  0  0  0  0  0  0  0  0  0  0  0
    1.2244   -1.5761    0.6416 C   0  0  0  0  0  0  0  0  0  0  0  0
    1.2316   -2.2759   -0.5733 O   0  0  0  0  0  0  0  0  0  0  0  0
    1.8083   -0.1866    0.4209 C   0  0  0  0  0  0  0  0  0  0  0  0
    0.9816    0.5760   -0.4582 O   0  0  0  0  0  0  0  0  0  0  0  0
   -0.3291    0.7739    0.0720 C   0  0  0  0  0  0  0  0  0  0  0  0
   -0.2224    1.4887    1.4126 C   0  0  0  0  0  0  0  0  0  0  0  0
    0.4289    2.7177    1.2371 O   0  0  0  0  0  0  0  0  0  0  0  0
    1.9078    0.5313    1.7603 C   0  0  0  0  0  0  0  0  0  0  0  0
   -2.1771   -0.7233   -2.7509 H   0  0  0  0  0  0  0  0  0  0  0  0
   -2.9705   -0.0975   -1.2405 H   0  0  0  0  0  0  0  0  0  0  0  0
   -1.4472    0.6805   -1.8566 H   0  0  0  0  0  0  0  0  0  0  0  0
   -2.0164   -0.3734    0.7684 H   0  0  0  0  0  0  0  0  0  0  0  0
   -0.6618   -2.5002    1.1400 H   0  0  0  0  0  0  0  0  0  0  0  0
   -1.0916   -0.9369    2.7509 H   0  0  0  0  0  0  0  0  0  0  0  0
    1.8433   -2.1081    1.3983 H   0  0  0  0  0  0  0  0  0  0  0  0
    0.8657   -3.1267   -0.4014 H   0  0  0  0  0  0  0  0  0  0  0  0
    2.8167   -0.2916   -0.0384 H   0  0  0  0  0  0  0  0  0  0  0  0
   -0.9170    1.3862   -0.6479 H   0  0  0  0  0  0  0  0  0  0  0  0
    0.3593    0.8592    2.1227 H   0  0  0  0  0  0  0  0  0  0  0  0
   -1.2426    1.6646    1.8213 H   0  0  0  0  0  0  0  0  0  0  0  0
    0.4749    3.1267    2.0844 H   0  0  0  0  0  0  0  0  0  0  0  0
    1.5302   -0.1350    2.5680 H   0  0  0  0  0  0  0  0  0  0  0  0
    1.2950    1.4599    1.7294 H   0  0  0  0  0  0  0  0  0  0  0  0
    2.9705    0.7936    1.9625 H   0  0  0  0  0  0  0  0  0  0  0  0
  1  2  1  0      
  1 14  1  0      
  1 15  1  0      
  1 16  1  0      
  3  2  1  0      
  4  3  1  0      
  3 10  1  0      
  3 17  1  0      
  4  5  1  0      
  6  4  1  0      
  4 18  1  0      
  5 19  1  0      
  6  7  1  0      
  8  6  1  0      
  6 20  1  0      
  7 21  1  0      
  8  9  1  0      
  8 13  1  0      
  8 22  1  0      
 10  9  1  0      
 10 11  1  0      
 10 23  1  0      
 11 12  1  0      
 11 24  1  0      
 11 25  1  0      
 12 26  1  0      
 13 27  1  0      
 13 28  1  0      
 13 29  1  0      
M  END
$$$$
