Fragment
  Chem3D Core 21.007272619333D

 21 20  0  0  0  0  0  0  0  0999 V2000
    0.1848   -1.3756   -0.0000 C   0  0  0  0  0  0  0  0  0  0  0  0
    1.5037   -0.6141   -0.0000 C   0  0  0  0  0  0  0  0  0  0  0  0
    1.2309    0.8579   -0.0000 C   0  0  0  0  0  0  0  0  0  0  0  0
    2.3691    1.8301   -0.0000 C   0  0  0  0  0  0  0  0  0  0  0  0
   -0.0295    1.3041   -0.0000 C   0  0  0  0  0  0  0  0  0  0  0  0
   -1.1678    0.3318   -0.0000 C   0  0  0  0  0  0  0  0  0  0  0  0
   -2.4868    1.0933   -0.0000 C   0  0  0  0  0  0  0  0  0  0  0  0
    0.3877   -2.4700   -0.0000 H   0  0  0  0  0  0  0  0  0  0  0  0
   -0.3981   -1.1069    0.9093 H   0  0  0  0  0  0  0  0  0  0  0  0
   -0.3987   -1.1066   -0.9088 H   0  0  0  0  0  0  0  0  0  0  0  0
    2.0867   -0.8828   -0.9093 H   0  0  0  0  0  0  0  0  0  0  0  0
    2.0872   -0.8830    0.9088 H   0  0  0  0  0  0  0  0  0  0  0  0
    3.3331    1.2737   -0.0000 H   0  0  0  0  0  0  0  0  0  0  0  0
    2.3104    2.4693   -0.9093 H   0  0  0  0  0  0  0  0  0  0  0  0
    2.3103    2.4700    0.9088 H   0  0  0  0  0  0  0  0  0  0  0  0
   -0.2300    2.3857   -0.0000 H   0  0  0  0  0  0  0  0  0  0  0  0
   -1.1090   -0.3073   -0.9093 H   0  0  0  0  0  0  0  0  0  0  0  0
   -1.1089   -0.3080    0.9088 H   0  0  0  0  0  0  0  0  0  0  0  0
   -3.3331    0.3704   -0.0000 H   0  0  0  0  0  0  0  0  0  0  0  0
   -2.5455    1.7325    0.9093 H   0  0  0  0  0  0  0  0  0  0  0  0
   -2.5456    1.7331   -0.9088 H   0  0  0  0  0  0  0  0  0  0  0  0
  1  2  1  0      
  1  8  1  0      
  1  9  1  0      
  1 10  1  0      
  2  3  1  0      
  2 11  1  0      
  2 12  1  0      
  3  4  1  0      
  3  5  2  0      
  4 13  1  0      
  4 14  1  0      
  4 15  1  0      
  5  6  1  0      
  5 16  1  0      
  6  7  1  0      
  6 17  1  0      
  6 18  1  0      
  7 19  1  0      
  7 20  1  0      
  7 21  1  0      
M  END
$$$$
