Fragment
  Chem3D Core 21.007272619333D

 47 46  0  0  0  0  0  0  0  0999 V2000
   -1.2986   -0.0657   -1.2168 C   0  0  0  0  0  0  0  0  0  0  0  0
   -2.6176    0.6958   -1.2168 C   0  0  0  0  0  0  0  0  0  0  0  0
   -2.3448    2.1677   -1.2168 C   0  0  0  0  0  0  0  0  0  0  0  0
   -3.4831    3.1399   -1.2168 C   0  0  0  0  0  0  0  0  0  0  0  0
   -1.0845    2.6141   -1.2168 C   0  0  0  0  0  0  0  0  0  0  0  0
    0.0539    1.6419   -1.2168 C   0  0  0  0  0  0  0  0  0  0  0  0
    1.3728    2.4034   -1.2168 C   0  0  0  0  0  0  0  0  0  0  0  0
    2.5112    1.4312   -1.2168 C   0  0  0  0  0  0  0  0  0  0  0  0
    3.9223    1.9309   -1.2168 C   0  0  0  0  0  0  0  0  0  0  0  0
    2.2675    0.1166   -1.2168 C   0  0  0  0  0  0  0  0  0  0  0  0
    0.8564   -0.3832   -1.2168 C   0  0  0  0  0  0  0  0  0  0  0  0
    0.8564   -1.9062   -1.2168 C   0  0  0  0  0  0  0  0  0  0  0  0
    2.2676   -2.4059   -1.2168 C   0  0  0  0  0  0  0  0  0  0  0  0
    2.9731   -2.6557   -2.5132 C   0  0  0  0  0  0  0  0  0  0  0  0
    2.8977   -2.6290   -0.0589 C   0  0  0  0  0  0  0  0  0  0  0  0
    2.1922   -2.3792    1.2376 C   0  0  0  0  0  0  0  0  0  0  0  0
    3.1245   -2.7093    2.3957 C   0  0  0  0  0  0  0  0  0  0  0  0
   -1.5014   -1.1600   -1.2168 H   0  0  0  0  0  0  0  0  0  0  0  0
   -0.7157    0.2031   -2.1260 H   0  0  0  0  0  0  0  0  0  0  0  0
   -0.7151    0.2033   -0.3080 H   0  0  0  0  0  0  0  0  0  0  0  0
   -3.2005    0.4271   -0.3075 H   0  0  0  0  0  0  0  0  0  0  0  0
   -3.2011    0.4268   -2.1256 H   0  0  0  0  0  0  0  0  0  0  0  0
   -4.4470    2.5834   -1.2168 H   0  0  0  0  0  0  0  0  0  0  0  0
   -3.4244    3.7791   -0.3075 H   0  0  0  0  0  0  0  0  0  0  0  0
   -3.4243    3.7798   -2.1256 H   0  0  0  0  0  0  0  0  0  0  0  0
   -0.8840    3.6956   -1.2168 H   0  0  0  0  0  0  0  0  0  0  0  0
   -0.0049    1.0027   -0.3075 H   0  0  0  0  0  0  0  0  0  0  0  0
   -0.0049    1.0020   -2.1256 H   0  0  0  0  0  0  0  0  0  0  0  0
    1.4315    3.0426   -2.1260 H   0  0  0  0  0  0  0  0  0  0  0  0
    1.4316    3.0432   -0.3080 H   0  0  0  0  0  0  0  0  0  0  0  0
    3.9223    3.0439   -1.2168 H   0  0  0  0  0  0  0  0  0  0  0  0
    4.4465    1.5605   -0.3075 H   0  0  0  0  0  0  0  0  0  0  0  0
    4.4470    1.5601   -2.1256 H   0  0  0  0  0  0  0  0  0  0  0  0
    3.1040   -0.5978   -1.2168 H   0  0  0  0  0  0  0  0  0  0  0  0
    0.3322   -0.0127   -0.3075 H   0  0  0  0  0  0  0  0  0  0  0  0
    0.3317   -0.0124   -2.1256 H   0  0  0  0  0  0  0  0  0  0  0  0
    0.3322   -2.2766   -2.1260 H   0  0  0  0  0  0  0  0  0  0  0  0
    0.3317   -2.2770   -0.3080 H   0  0  0  0  0  0  0  0  0  0  0  0
    2.2918   -2.4144   -3.3595 H   0  0  0  0  0  0  0  0  0  0  0  0
    3.8792   -2.0119   -2.5719 H   0  0  0  0  0  0  0  0  0  0  0  0
    3.2729   -3.7260   -2.5720 H   0  0  0  0  0  0  0  0  0  0  0  0
    3.9346   -2.9962   -0.0589 H   0  0  0  0  0  0  0  0  0  0  0  0
    1.8931   -1.3087    1.2963 H   0  0  0  0  0  0  0  0  0  0  0  0
    1.2857   -3.0223    1.2963 H   0  0  0  0  0  0  0  0  0  0  0  0
    2.6000   -2.5236    3.3595 H   0  0  0  0  0  0  0  0  0  0  0  0
    3.4236   -3.7798    2.3369 H   0  0  0  0  0  0  0  0  0  0  0  0
    4.0310   -2.0662    2.3369 H   0  0  0  0  0  0  0  0  0  0  0  0
  1  2  1  0      
  1 18  1  0      
  1 19  1  0      
  1 20  1  0      
  2  3  1  0      
  2 21  1  0      
  2 22  1  0      
  3  4  1  0      
  3  5  2  0      
  4 23  1  0      
  4 24  1  0      
  4 25  1  0      
  5  6  1  0      
  5 26  1  0      
  6  7  1  0      
  6 27  1  0      
  6 28  1  0      
  7  8  1  0      
  7 29  1  0      
  7 30  1  0      
  8  9  1  0      
  8 10  2  0      
  9 31  1  0      
  9 32  1  0      
  9 33  1  0      
 10 11  1  0      
 10 34  1  0      
 11 12  1  0      
 11 35  1  0      
 11 36  1  0      
 12 13  1  0      
 12 37  1  0      
 12 38  1  0      
 13 14  1  0      
 13 15  2  0      
 14 39  1  0      
 14 40  1  0      
 14 41  1  0      
 15 16  1  0      
 15 42  1  0      
 16 17  1  0      
 16 43  1  0      
 16 44  1  0      
 17 45  1  0      
 17 46  1  0      
 17 47  1  0      
M  END
$$$$
